<?xml version="1.0" encoding="UTF-8"?>

<!-- generated on 06/23/20 13:19:27 by Eclipse SUMO duarouter Version 1.6.0
<configuration xmlns:xsi="http://www.w3.org/2001/XMLSchema-instance" xsi:noNamespaceSchemaLocation="http://sumo.dlr.de/xsd/duarouterConfiguration.xsd">

    <input>
        <net-file value="optimal.net.xml"/>
        <route-files value="optimal.passenger.trips.xml"/>
    </input>

    <output>
        <output-file value="optimal.passenger.rou.xml"/>
        <alternatives-output value="optimal.passenger.rou.alt.xml"/>
    </output>

    <time>
        <begin value="0"/>
        <end value="1800.0"/>
    </time>

    <report>
        <no-warnings value="true"/>
        <ignore-errors value="true"/>
        <no-step-log value="true"/>
    </report>

</configuration>
-->

<routes xmlns:xsi="http://www.w3.org/2001/XMLSchema-instance" xsi:noNamespaceSchemaLocation="http://sumo.dlr.de/xsd/routes_file.xsd">
    <vType id="veh_passenger" vClass="passenger"/>
    <vehicle id="veh0" type="veh_passenger" depart="0.00" departLane="best" departSpeed="max">
        <route edges="D0D1 D1C1 C1B1 B1A1"/>
    </vehicle>
    <vehicle id="veh1" type="veh_passenger" depart="3.00" departLane="best" departSpeed="max">
        <route edges="E2D2 D2C2 C2B2 B2B1 B1B0"/>
    </vehicle>
    <vehicle id="veh2" type="veh_passenger" depart="6.00" departLane="best" departSpeed="max">
        <route edges="B0B1 B1B2 B2C2 C2C3"/>
    </vehicle>
    <vehicle id="veh3" type="veh_passenger" depart="9.00" departLane="best" departSpeed="max">
        <route edges="B0B1 B1B2 B2C2 C2C3 C3C4"/>
    </vehicle>
    <vehicle id="veh4" type="veh_passenger" depart="12.00" departLane="best" departSpeed="max">
        <route edges="D4D3 D3D2 D2D1 D1C1 C1B1 B1A1"/>
    </vehicle>
    <vehicle id="veh5" type="veh_passenger" depart="15.00" departLane="best" departSpeed="max">
        <route edges="E3D3 D3C3 C3B3 B3B4"/>
    </vehicle>
    <vehicle id="veh6" type="veh_passenger" depart="18.00" departLane="best" departSpeed="max">
        <route edges="E1D1 D1C1 C1C2 C2C3 C3C4"/>
    </vehicle>
    <vehicle id="veh7" type="veh_passenger" depart="21.00" departLane="best" departSpeed="max">
        <route edges="D4D3 D3D2 D2D1 D1E1"/>
    </vehicle>
    <vehicle id="veh8" type="veh_passenger" depart="24.00" departLane="best" departSpeed="max">
        <route edges="E1D1 D1C1 C1C2 C2C3 C3C4"/>
    </vehicle>
    <vehicle id="veh9" type="veh_passenger" depart="27.00" departLane="best">
        <route edges="D2C2 C2C1 C1B1 B1A1"/>
    </vehicle>
    <vehicle id="veh10" type="veh_passenger" depart="30.00" departLane="best" departSpeed="max">
        <route edges="B0B1 B1B2 B2B3 B3A3"/>
    </vehicle>
    <vehicle id="veh11" type="veh_passenger" depart="33.00" departLane="best" departSpeed="max">
        <route edges="D0D1 D1C1 C1B1 B1B2 B2B3 B3B4"/>
    </vehicle>
    <vehicle id="veh12" type="veh_passenger" depart="36.00" departLane="best" departSpeed="max">
        <route edges="B4B3 B3B2 B2B1"/>
    </vehicle>
    <vehicle id="veh13" type="veh_passenger" depart="39.00" departLane="best" departSpeed="max">
        <route edges="D0D1 D1C1 C1C2 C2C3 C3D3"/>
    </vehicle>
    <vehicle id="veh14" type="veh_passenger" depart="42.00" departLane="best" departSpeed="max">
        <route edges="A3B3 B3C3 C3C2 C2C1 C1D1 D1E1"/>
    </vehicle>
    <vehicle id="veh15" type="veh_passenger" depart="45.00" departLane="best" departSpeed="max">
        <route edges="E3D3 D3D2 D2D1 D1D0"/>
    </vehicle>
    <vehicle id="veh16" type="veh_passenger" depart="48.00" departLane="best">
        <route edges="C3D3 D3D2 D2D1 D1D0"/>
    </vehicle>
    <vehicle id="veh17" type="veh_passenger" depart="51.00" departLane="best" departSpeed="max">
        <route edges="B0B1 B1B2 B2B3 B3C3 C3D3 D3E3"/>
    </vehicle>
    <vehicle id="veh18" type="veh_passenger" depart="54.00" departLane="best" departSpeed="max">
        <route edges="E1D1 D1C1 C1B1 B1B2 B2B3 B3B4"/>
    </vehicle>
    <vehicle id="veh19" type="veh_passenger" depart="57.00" departLane="best" departSpeed="max">
        <route edges="C0C1 C1B1 B1B2 B2B3"/>
    </vehicle>
    <vehicle id="veh20" type="veh_passenger" depart="60.00" departLane="best" departSpeed="max">
        <route edges="D4D3 D3D2 D2C2 C2C1 C1C0"/>
    </vehicle>
    <vehicle id="veh21" type="veh_passenger" depart="63.00" departLane="best" departSpeed="max">
        <route edges="E3D3 D3C3 C3B3"/>
    </vehicle>
    <vehicle id="veh22" type="veh_passenger" depart="66.00" departLane="best" departSpeed="max">
        <route edges="A1B1 B1C1 C1D1 D1E1"/>
    </vehicle>
    <vehicle id="veh23" type="veh_passenger" depart="69.00" departLane="best" departSpeed="max">
        <route edges="E1D1 D1C1 C1C2 C2C3 C3B3 B3A3"/>
    </vehicle>
    <vehicle id="veh24" type="veh_passenger" depart="72.00" departLane="best">
        <route edges="B3B2 B2C2 C2D2 D2D1 D1D0"/>
    </vehicle>
    <vehicle id="veh25" type="veh_passenger" depart="75.00" departLane="best" departSpeed="max">
        <route edges="A1B1 B1B2 B2B3 B3B4"/>
    </vehicle>
    <vehicle id="veh26" type="veh_passenger" depart="78.00" departLane="best" departSpeed="max">
        <route edges="A1B1 B1C1 C1D1 D1D2 D2D3 D3D4"/>
    </vehicle>
    <vehicle id="veh27" type="veh_passenger" depart="81.00" departLane="best" departSpeed="max">
        <route edges="A2B2 B2C2 C2C1 C1D1 D1E1"/>
    </vehicle>
    <vehicle id="veh28" type="veh_passenger" depart="84.00" departLane="best">
        <route edges="C1D1 D1D2 D2C2 C2C3 C3C4"/>
    </vehicle>
    <vehicle id="veh29" type="veh_passenger" depart="87.00" departLane="best" departSpeed="max">
        <route edges="B0B1 B1B2 B2B3 B3B4"/>
    </vehicle>
    <vehicle id="veh30" type="veh_passenger" depart="90.00" departLane="best" departSpeed="max">
        <route edges="E3D3 D3D2 D2D1 D1D0"/>
    </vehicle>
    <vehicle id="veh31" type="veh_passenger" depart="93.00" departLane="best" departSpeed="max">
        <route edges="B0B1 B1B2 B2B3"/>
    </vehicle>
    <vehicle id="veh32" type="veh_passenger" depart="96.00" departLane="best" departSpeed="max">
        <route edges="A2B2 B2C2 C2D2 D2D1 D1D0"/>
    </vehicle>
    <vehicle id="veh33" type="veh_passenger" depart="99.00" departLane="best" departSpeed="max">
        <route edges="B0B1 B1B2 B2C2 C2D2 D2D3 D3D4"/>
    </vehicle>
    <vehicle id="veh34" type="veh_passenger" depart="102.00" departLane="best" departSpeed="max">
        <route edges="E1D1 D1C1 C1B1 B1B0"/>
    </vehicle>
    <vehicle id="veh35" type="veh_passenger" depart="105.00" departLane="best" departSpeed="max">
        <route edges="D4D3 D3D2 D2C2 C2B2 B2A2"/>
    </vehicle>
    <vehicle id="veh36" type="veh_passenger" depart="108.00" departLane="best" departSpeed="max">
        <route edges="E3D3 D3C3 C3B3 B3B2 B2B1 B1B0"/>
    </vehicle>
    <vehicle id="veh37" type="veh_passenger" depart="111.00" departLane="best" departSpeed="max">
        <route edges="C0C1 C1B1 B1B2 B2B3 B3B4"/>
    </vehicle>
    <vehicle id="veh38" type="veh_passenger" depart="114.00" departLane="best" departSpeed="max">
        <route edges="E1D1 D1C1 C1C2 C2C3 C3B3 B3A3"/>
    </vehicle>
    <vehicle id="veh39" type="veh_passenger" depart="117.00" departLane="best" departSpeed="max">
        <route edges="C0C1 C1C2 C2C3 C3B3 B3A3"/>
    </vehicle>
    <vehicle id="veh40" type="veh_passenger" depart="120.00" departLane="best">
        <route edges="B1B2 B2B3 B3C3 C3D3 D3D4"/>
    </vehicle>
    <vehicle id="veh41" type="veh_passenger" depart="123.00" departLane="best" departSpeed="max">
        <route edges="E1D1 D1C1 C1C2 C2B2 B2A2"/>
    </vehicle>
    <vehicle id="veh42" type="veh_passenger" depart="126.00" departLane="best" departSpeed="max">
        <route edges="B4B3 B3C3 C3D3 D3E3"/>
    </vehicle>
    <vehicle id="veh43" type="veh_passenger" depart="129.00" departLane="best" departSpeed="max">
        <route edges="A1B1 B1C1 C1C2 C2C3 C3C4"/>
    </vehicle>
    <vehicle id="veh44" type="veh_passenger" depart="132.00" departLane="best" departSpeed="max">
        <route edges="A3B3 B3C3 C3D3 D3E3"/>
    </vehicle>
    <vehicle id="veh45" type="veh_passenger" depart="135.00" departLane="best" departSpeed="max">
        <route edges="C4C3 C3D3 D3D2 D2D1 D1D0"/>
    </vehicle>
    <vehicle id="veh46" type="veh_passenger" depart="138.00" departLane="best" departSpeed="max">
        <route edges="E2D2 D2C2 C2C3 C3B3 B3A3"/>
    </vehicle>
    <vehicle id="veh47" type="veh_passenger" depart="141.00" departLane="best" departSpeed="max">
        <route edges="C4C3 C3D3 D3D2 D2D1 D1C1"/>
    </vehicle>
    <vehicle id="veh48" type="veh_passenger" depart="144.00" departLane="best" departSpeed="max">
        <route edges="C0C1 C1C2 C2C3 C3C4"/>
    </vehicle>
    <vehicle id="veh49" type="veh_passenger" depart="147.00" departLane="best" departSpeed="max">
        <route edges="B0B1 B1C1 C1D1 D1E1"/>
    </vehicle>
    <vehicle id="veh50" type="veh_passenger" depart="150.00" departLane="best">
        <route edges="B3C3 C3D3 D3D2 D2D1 D1E1"/>
    </vehicle>
    <vehicle id="veh51" type="veh_passenger" depart="153.00" departLane="best" departSpeed="max">
        <route edges="D0D1 D1C1 C1B1 B1A1"/>
    </vehicle>
    <vehicle id="veh52" type="veh_passenger" depart="156.00" departLane="best" departSpeed="max">
        <route edges="D0D1 D1D2 D2D3 D3D4"/>
    </vehicle>
    <vehicle id="veh53" type="veh_passenger" depart="159.00" departLane="best" departSpeed="max">
        <route edges="A3B3 B3B2 B2B1 B1B0"/>
    </vehicle>
    <vehicle id="veh54" type="veh_passenger" depart="162.00" departLane="best" departSpeed="max">
        <route edges="D0D1 D1D2 D2D3 D3C3 C3B3 B3A3"/>
    </vehicle>
    <vehicle id="veh55" type="veh_passenger" depart="165.00" departLane="best" departSpeed="max">
        <route edges="E1D1 D1C1 C1B1 B1B0"/>
    </vehicle>
    <vehicle id="veh56" type="veh_passenger" depart="168.00" departLane="best" departSpeed="max">
        <route edges="C0C1 C1C2 C2C3 C3B3 B3A3"/>
    </vehicle>
    <vehicle id="veh57" type="veh_passenger" depart="171.00" departLane="best" departSpeed="max">
        <route edges="D0D1 D1D2 D2D3 D3C3 C3B3 B3A3"/>
    </vehicle>
    <vehicle id="veh58" type="veh_passenger" depart="174.00" departLane="best" departSpeed="max">
        <route edges="A2B2 B2C2 C2D2 D2D3 D3D4"/>
    </vehicle>
    <vehicle id="veh59" type="veh_passenger" depart="177.00" departLane="best" departSpeed="max">
        <route edges="E1D1 D1C1 C1C2 C2C3 C3C4"/>
    </vehicle>
    <vehicle id="veh60" type="veh_passenger" depart="180.00" departLane="best" departSpeed="max">
        <route edges="E2D2 D2C2 C2B2 B2B1"/>
    </vehicle>
    <vehicle id="veh61" type="veh_passenger" depart="183.00" departLane="best" departSpeed="max">
        <route edges="A3B3 B3C3 C3D3 D3D4"/>
    </vehicle>
    <vehicle id="veh62" type="veh_passenger" depart="186.00" departLane="best" departSpeed="max">
        <route edges="A1B1 B1C1 C1D1 D1E1"/>
    </vehicle>
    <vehicle id="veh63" type="veh_passenger" depart="189.00" departLane="best" departSpeed="max">
        <route edges="D4D3 D3C3 C3B3 B3A3"/>
    </vehicle>
    <vehicle id="veh64" type="veh_passenger" depart="192.00" departLane="best" departSpeed="max">
        <route edges="D4D3 D3D2 D2C2 C2B2 B2B1 B1B0"/>
    </vehicle>
    <vehicle id="veh65" type="veh_passenger" depart="195.00" departLane="best" departSpeed="max">
        <route edges="B0B1 B1B2 B2C2 C2D2 D2E2"/>
    </vehicle>
    <vehicle id="veh66" type="veh_passenger" depart="198.00" departLane="best" departSpeed="max">
        <route edges="E3D3 D3C3 C3B3 B3A3"/>
    </vehicle>
    <vehicle id="veh67" type="veh_passenger" depart="201.00" departLane="best" departSpeed="max">
        <route edges="E2D2 D2C2 C2B2 B2B1 B1B0"/>
    </vehicle>
    <vehicle id="veh68" type="veh_passenger" depart="204.00" departLane="best" departSpeed="max">
        <route edges="E3D3 D3D2 D2C2 C2B2 B2A2"/>
    </vehicle>
    <vehicle id="veh69" type="veh_passenger" depart="207.00" departLane="best" departSpeed="max">
        <route edges="E3D3 D3C3 C3B3 B3A3"/>
    </vehicle>
    <vehicle id="veh70" type="veh_passenger" depart="210.00" departLane="best" departSpeed="max">
        <route edges="C0C1 C1C2 C2C3 C3C4"/>
    </vehicle>
    <vehicle id="veh71" type="veh_passenger" depart="213.00" departLane="best">
        <route edges="B1C1 C1D1 D1E1"/>
    </vehicle>
    <vehicle id="veh72" type="veh_passenger" depart="216.00" departLane="best" departSpeed="max">
        <route edges="A1B1 B1C1 C1D1 D1D2 D2D3 D3D4"/>
    </vehicle>
    <vehicle id="veh73" type="veh_passenger" depart="219.00" departLane="best">
        <route edges="D3C3 C3C2 C2D2 D2D1 D1D0"/>
    </vehicle>
    <vehicle id="veh74" type="veh_passenger" depart="222.00" departLane="best" departSpeed="max">
        <route edges="B4B3 B3B2 B2B1 B1B0"/>
    </vehicle>
    <vehicle id="veh75" type="veh_passenger" depart="225.00" departLane="best" departSpeed="max">
        <route edges="D0D1 D1C1 C1B1 B1B2 B2B3 B3B4"/>
    </vehicle>
    <vehicle id="veh76" type="veh_passenger" depart="228.00" departLane="best">
        <route edges="B3C3 C3D3 D3D2 D2E2"/>
    </vehicle>
    <vehicle id="veh77" type="veh_passenger" depart="231.00" departLane="best">
        <route edges="B3B2 B2C2 C2C1 C1C0"/>
    </vehicle>
    <vehicle id="veh78" type="veh_passenger" depart="234.00" departLane="best" departSpeed="max">
        <route edges="C0C1 C1C2 C2C3 C3B3 B3A3"/>
    </vehicle>
    <vehicle id="veh79" type="veh_passenger" depart="237.00" departLane="best" departSpeed="max">
        <route edges="A3B3 B3C3 C3C2 C2C1 C1C0"/>
    </vehicle>
    <vehicle id="veh80" type="veh_passenger" depart="240.00" departLane="best" departSpeed="max">
        <route edges="C0C1 C1C2 C2C3 C3C4"/>
    </vehicle>
    <vehicle id="veh81" type="veh_passenger" depart="243.00" departLane="best">
        <route edges="C1D1 D1D2 D2D3 D3D4"/>
    </vehicle>
    <vehicle id="veh82" type="veh_passenger" depart="246.00" departLane="best" departSpeed="max">
        <route edges="D4D3 D3D2 D2C2 C2B2 B2A2"/>
    </vehicle>
    <vehicle id="veh83" type="veh_passenger" depart="249.00" departLane="best" departSpeed="max">
        <route edges="A2B2 B2C2 C2D2"/>
    </vehicle>
    <vehicle id="veh84" type="veh_passenger" depart="252.00" departLane="best" departSpeed="max">
        <route edges="D0D1 D1C1 C1B1 B1B2 B2B3 B3B4"/>
    </vehicle>
    <vehicle id="veh85" type="veh_passenger" depart="255.00" departLane="best" departSpeed="max">
        <route edges="D4D3 D3D2 D2D1 D1E1"/>
    </vehicle>
    <vehicle id="veh86" type="veh_passenger" depart="258.00" departLane="best" departSpeed="max">
        <route edges="D0D1 D1C1 C1B1 B1B2 B2B3"/>
    </vehicle>
    <vehicle id="veh87" type="veh_passenger" depart="261.00" departLane="best" departSpeed="max">
        <route edges="E1D1 D1C1 C1B1 B1B0"/>
    </vehicle>
    <vehicle id="veh88" type="veh_passenger" depart="264.00" departLane="best" departSpeed="max">
        <route edges="D0D1 D1C1 C1B1 B1A1"/>
    </vehicle>
    <vehicle id="veh89" type="veh_passenger" depart="267.00" departLane="best" departSpeed="max">
        <route edges="A3B3 B3C3 C3D3 D3E3"/>
    </vehicle>
    <vehicle id="veh90" type="veh_passenger" depart="270.00" departLane="best">
        <route edges="B1B2 B2C2 C2D2 D2E2"/>
    </vehicle>
    <vehicle id="veh91" type="veh_passenger" depart="273.00" departLane="best" departSpeed="max">
        <route edges="D0D1 D1D2 D2D3 D3E3"/>
    </vehicle>
    <vehicle id="veh92" type="veh_passenger" depart="276.00" departLane="best" departSpeed="max">
        <route edges="E1D1 D1C1 C1C2 C2C3 C3C4"/>
    </vehicle>
    <vehicle id="veh93" type="veh_passenger" depart="279.00" departLane="best" departSpeed="max">
        <route edges="D0D1 D1D2 D2D3 D3C3 C3B3 B3A3"/>
    </vehicle>
    <vehicle id="veh94" type="veh_passenger" depart="282.00" departLane="best" departSpeed="max">
        <route edges="C0C1 C1C2 C2D2 D2D3 D3D4"/>
    </vehicle>
    <vehicle id="veh95" type="veh_passenger" depart="285.00" departLane="best" departSpeed="max">
        <route edges="B4B3 B3B2 B2B1 B1A1"/>
    </vehicle>
    <vehicle id="veh96" type="veh_passenger" depart="288.00" departLane="best" departSpeed="max">
        <route edges="B4B3 B3B2 B2B1 B1C1 C1D1 D1E1"/>
    </vehicle>
    <vehicle id="veh97" type="veh_passenger" depart="291.00" departLane="best" departSpeed="max">
        <route edges="B0B1 B1B2 B2B3"/>
    </vehicle>
    <vehicle id="veh98" type="veh_passenger" depart="294.00" departLane="best" departSpeed="max">
        <route edges="B4B3 B3C3 C3D3 D3D2 D2D1 D1D0"/>
    </vehicle>
    <vehicle id="veh99" type="veh_passenger" depart="297.00" departLane="best" departSpeed="max">
        <route edges="D0D1 D1C1 C1B1 B1A1"/>
    </vehicle>
    <vehicle id="veh100" type="veh_passenger" depart="300.00" departLane="best" departSpeed="max">
        <route edges="C0C1 C1C2 C2C3 C3C4"/>
    </vehicle>
    <vehicle id="veh101" type="veh_passenger" depart="303.00" departLane="best" departSpeed="max">
        <route edges="A1B1 B1C1 C1D1 D1D0"/>
    </vehicle>
    <vehicle id="veh102" type="veh_passenger" depart="306.00" departLane="best" departSpeed="max">
        <route edges="B0B1 B1B2 B2B3 B3B4"/>
    </vehicle>
    <vehicle id="veh103" type="veh_passenger" depart="309.00" departLane="best" departSpeed="max">
        <route edges="E3D3 D3C3 C3B3 B3B4"/>
    </vehicle>
    <vehicle id="veh104" type="veh_passenger" depart="312.00" departLane="best" departSpeed="max">
        <route edges="E3D3 D3D2 D2C2 C2B2 B2A2"/>
    </vehicle>
    <vehicle id="veh105" type="veh_passenger" depart="315.00" departLane="best" departSpeed="max">
        <route edges="A3B3 B3C3 C3D3 D3D2 D2D1 D1D0"/>
    </vehicle>
    <vehicle id="veh106" type="veh_passenger" depart="318.00" departLane="best" departSpeed="max">
        <route edges="A3B3 B3C3 C3D3"/>
    </vehicle>
    <vehicle id="veh107" type="veh_passenger" depart="321.00" departLane="best">
        <route edges="D3C3 C3B3 B3B2 B2B1 B1B0"/>
    </vehicle>
    <vehicle id="veh108" type="veh_passenger" depart="324.00" departLane="best">
        <route edges="B3C3 C3D3 D3D2 D2D1 D1D0"/>
    </vehicle>
    <vehicle id="veh109" type="veh_passenger" depart="327.00" departLane="best" departSpeed="max">
        <route edges="E3D3 D3C3 C3C2 C2C1 C1C0"/>
    </vehicle>
    <vehicle id="veh110" type="veh_passenger" depart="330.00" departLane="best" departSpeed="max">
        <route edges="E1D1 D1C1 C1C2 C2C3 C3C4"/>
    </vehicle>
    <vehicle id="veh111" type="veh_passenger" depart="333.00" departLane="best" departSpeed="max">
        <route edges="A3B3 B3C3 C3D3 D3E3"/>
    </vehicle>
    <vehicle id="veh112" type="veh_passenger" depart="336.00" departLane="best" departSpeed="max">
        <route edges="C0C1 C1B1 B1B2 B2B3 B3C3"/>
    </vehicle>
    <vehicle id="veh113" type="veh_passenger" depart="339.00" departLane="best" departSpeed="max">
        <route edges="A2B2 B2B3 B3C3 C3D3 D3E3"/>
    </vehicle>
    <vehicle id="veh114" type="veh_passenger" depart="342.00" departLane="best">
        <route edges="B2B1 B1C1 C1C2 C2D2 D2E2"/>
    </vehicle>
    <vehicle id="veh115" type="veh_passenger" depart="345.00" departLane="best">
        <route edges="B2B1 B1C1 C1C2 C2D2 D2E2"/>
    </vehicle>
    <vehicle id="veh116" type="veh_passenger" depart="348.00" departLane="best" departSpeed="max">
        <route edges="E1D1 D1C1 C1B1 B1B0"/>
    </vehicle>
    <vehicle id="veh117" type="veh_passenger" depart="351.00" departLane="best" departSpeed="max">
        <route edges="E2D2 D2C2 C2C3 C3B3 B3A3"/>
    </vehicle>
    <vehicle id="veh118" type="veh_passenger" depart="354.00" departLane="best" departSpeed="max">
        <route edges="B4B3 B3B2 B2B1 B1A1"/>
    </vehicle>
    <vehicle id="veh119" type="veh_passenger" depart="357.00" departLane="best" departSpeed="max">
        <route edges="E1D1 D1C1 C1C2 C2B2 B2A2"/>
    </vehicle>
    <vehicle id="veh120" type="veh_passenger" depart="360.00" departLane="best" departSpeed="max">
        <route edges="B0B1 B1B2 B2C2 C2D2 D2E2"/>
    </vehicle>
    <vehicle id="veh121" type="veh_passenger" depart="363.00" departLane="best">
        <route edges="D1D2 D2D3 D3C3 C3B3 B3A3"/>
    </vehicle>
    <vehicle id="veh122" type="veh_passenger" depart="366.00" departLane="best" departSpeed="max">
        <route edges="A1B1 B1B2 B2B3 B3C3 C3D3 D3E3"/>
    </vehicle>
    <vehicle id="veh123" type="veh_passenger" depart="369.00" departLane="best" departSpeed="max">
        <route edges="A2B2 B2C2 C2C1 C1D1 D1E1"/>
    </vehicle>
    <vehicle id="veh124" type="veh_passenger" depart="372.00" departLane="best" departSpeed="max">
        <route edges="C4C3 C3C2 C2C1 C1D1"/>
    </vehicle>
    <vehicle id="veh125" type="veh_passenger" depart="375.00" departLane="best">
        <route edges="C3B3 B3B2 B2C2 C2C1 C1C0"/>
    </vehicle>
    <vehicle id="veh126" type="veh_passenger" depart="378.00" departLane="best">
        <route edges="D2C2 C2B2 B2B3 B3A3"/>
    </vehicle>
    <vehicle id="veh127" type="veh_passenger" depart="381.00" departLane="best" departSpeed="max">
        <route edges="B0B1 B1B2 B2B3"/>
    </vehicle>
    <vehicle id="veh128" type="veh_passenger" depart="384.00" departLane="best" departSpeed="max">
        <route edges="E3D3 D3C3 C3B3"/>
    </vehicle>
    <vehicle id="veh129" type="veh_passenger" depart="387.00" departLane="best" departSpeed="max">
        <route edges="E1D1 D1C1 C1C2 C2C3 C3C4"/>
    </vehicle>
    <vehicle id="veh130" type="veh_passenger" depart="390.00" departLane="best" departSpeed="max">
        <route edges="E3D3 D3D2 D2C2 C2B2"/>
    </vehicle>
    <vehicle id="veh131" type="veh_passenger" depart="393.00" departLane="best" departSpeed="max">
        <route edges="E3D3 D3C3 C3B3 B3B2 B2B1 B1B0"/>
    </vehicle>
    <vehicle id="veh132" type="veh_passenger" depart="396.00" departLane="best" departSpeed="max">
        <route edges="E3D3 D3C3 C3B3 B3B2"/>
    </vehicle>
    <vehicle id="veh133" type="veh_passenger" depart="399.00" departLane="best" departSpeed="max">
        <route edges="D0D1 D1C1 C1C2 C2C3 C3D3"/>
    </vehicle>
    <vehicle id="veh134" type="veh_passenger" depart="402.00" departLane="best" departSpeed="max">
        <route edges="D0D1 D1D2 D2C2 C2B2 B2A2"/>
    </vehicle>
    <vehicle id="veh135" type="veh_passenger" depart="405.00" departLane="best" departSpeed="max">
        <route edges="A3B3 B3B2 B2B1 B1B0"/>
    </vehicle>
    <vehicle id="veh136" type="veh_passenger" depart="408.00" departLane="best" departSpeed="max">
        <route edges="B0B1 B1C1 C1D1 D1E1"/>
    </vehicle>
    <vehicle id="veh137" type="veh_passenger" depart="411.00" departLane="best">
        <route edges="D1C1 C1C2 C2D2 D2D3 D3D4"/>
    </vehicle>
    <vehicle id="veh138" type="veh_passenger" depart="414.00" departLane="best" departSpeed="max">
        <route edges="D4D3 D3D2 D2D1 D1C1"/>
    </vehicle>
    <vehicle id="veh139" type="veh_passenger" depart="417.00" departLane="best" departSpeed="max">
        <route edges="D0D1 D1D2 D2D3 D3D4"/>
    </vehicle>
    <vehicle id="veh140" type="veh_passenger" depart="420.00" departLane="best" departSpeed="max">
        <route edges="D0D1 D1D2 D2D3 D3D4"/>
    </vehicle>
    <vehicle id="veh141" type="veh_passenger" depart="423.00" departLane="best" departSpeed="max">
        <route edges="E1D1 D1C1 C1B1 B1B0"/>
    </vehicle>
    <vehicle id="veh142" type="veh_passenger" depart="426.00" departLane="best" departSpeed="max">
        <route edges="A2B2 B2B3 B3C3 C3D3 D3E3"/>
    </vehicle>
    <vehicle id="veh143" type="veh_passenger" depart="429.00" departLane="best" departSpeed="max">
        <route edges="E1D1 D1C1 C1C2 C2C3 C3C4"/>
    </vehicle>
    <vehicle id="veh144" type="veh_passenger" depart="432.00" departLane="best" departSpeed="max">
        <route edges="D0D1 D1D2 D2D3 D3C3 C3B3 B3A3"/>
    </vehicle>
    <vehicle id="veh145" type="veh_passenger" depart="435.00" departLane="best" departSpeed="max">
        <route edges="A1B1 B1C1 C1D1 D1E1"/>
    </vehicle>
    <vehicle id="veh146" type="veh_passenger" depart="438.00" departLane="best" departSpeed="max">
        <route edges="E2D2 D2C2 C2B2 B2A2"/>
    </vehicle>
    <vehicle id="veh147" type="veh_passenger" depart="441.00" departLane="best" departSpeed="max">
        <route edges="C4C3 C3D3 D3D2 D2D1 D1D0"/>
    </vehicle>
    <vehicle id="veh148" type="veh_passenger" depart="444.00" departLane="best" departSpeed="max">
        <route edges="D0D1 D1D2 D2D3 D3C3"/>
    </vehicle>
    <vehicle id="veh149" type="veh_passenger" depart="447.00" departLane="best">
        <route edges="B2C2 C2C3 C3D3 D3E3"/>
    </vehicle>
    <vehicle id="veh150" type="veh_passenger" depart="450.00" departLane="best">
        <route edges="C1C2 C2B2 B2B3 B3B4"/>
    </vehicle>
    <vehicle id="veh151" type="veh_passenger" depart="453.00" departLane="best" departSpeed="max">
        <route edges="B4B3 B3C3 C3D3 D3E3"/>
    </vehicle>
    <vehicle id="veh152" type="veh_passenger" depart="456.00" departLane="best" departSpeed="max">
        <route edges="E3D3 D3D2 D2D1 D1D0"/>
    </vehicle>
    <vehicle id="veh153" type="veh_passenger" depart="459.00" departLane="best">
        <route edges="C3C2 C2C1 C1C0"/>
    </vehicle>
    <vehicle id="veh154" type="veh_passenger" depart="462.00" departLane="best" departSpeed="max">
        <route edges="B0B1 B1B2 B2B3 B3B4"/>
    </vehicle>
    <vehicle id="veh155" type="veh_passenger" depart="465.00" departLane="best" departSpeed="max">
        <route edges="A3B3 B3C3 C3D3 D3E3"/>
    </vehicle>
    <vehicle id="veh156" type="veh_passenger" depart="468.00" departLane="best">
        <route edges="C3D3 D3D2 D2D1 D1C1 C1B1 B1B0"/>
    </vehicle>
    <vehicle id="veh157" type="veh_passenger" depart="471.00" departLane="best">
        <route edges="B2B1 B1C1 C1C2 C2D2 D2E2"/>
    </vehicle>
    <vehicle id="veh158" type="veh_passenger" depart="474.00" departLane="best" departSpeed="max">
        <route edges="E3D3 D3C3 C3B3 B3A3"/>
    </vehicle>
    <vehicle id="veh159" type="veh_passenger" depart="477.00" departLane="best" departSpeed="max">
        <route edges="C0C1 C1C2 C2D2 D2D3 D3D4"/>
    </vehicle>
    <vehicle id="veh160" type="veh_passenger" depart="480.00" departLane="best">
        <route edges="C1C2 C2B2 B2B3 B3B4"/>
    </vehicle>
    <vehicle id="veh161" type="veh_passenger" depart="483.00" departLane="best" departSpeed="max">
        <route edges="D4D3 D3D2 D2D1 D1C1 C1B1 B1A1"/>
    </vehicle>
    <vehicle id="veh162" type="veh_passenger" depart="486.00" departLane="best" departSpeed="max">
        <route edges="D4D3 D3D2 D2D1 D1C1 C1B1"/>
    </vehicle>
    <vehicle id="veh163" type="veh_passenger" depart="489.00" departLane="best" departSpeed="max">
        <route edges="D0D1 D1D2 D2C2 C2B2 B2A2"/>
    </vehicle>
    <vehicle id="veh164" type="veh_passenger" depart="492.00" departLane="best" departSpeed="max">
        <route edges="E1D1 D1C1 C1B1 B1A1"/>
    </vehicle>
    <vehicle id="veh165" type="veh_passenger" depart="495.00" departLane="best" departSpeed="max">
        <route edges="A2B2 B2C2 C2D2 D2D1 D1D0"/>
    </vehicle>
    <vehicle id="veh166" type="veh_passenger" depart="498.00" departLane="best">
        <route edges="D3C3 C3C2 C2C1 C1C0"/>
    </vehicle>
    <vehicle id="veh167" type="veh_passenger" depart="501.00" departLane="best" departSpeed="max">
        <route edges="A2B2 B2C2 C2D2 D2D1 D1D0"/>
    </vehicle>
    <vehicle id="veh168" type="veh_passenger" depart="504.00" departLane="best">
        <route edges="D1D2 D2D3 D3D4"/>
    </vehicle>
    <vehicle id="veh169" type="veh_passenger" depart="507.00" departLane="best" departSpeed="max">
        <route edges="A1B1 B1C1 C1D1 D1D2 D2D3"/>
    </vehicle>
    <vehicle id="veh170" type="veh_passenger" depart="510.00" departLane="best" departSpeed="max">
        <route edges="A3B3 B3B2 B2B1 B1B0"/>
    </vehicle>
    <vehicle id="veh171" type="veh_passenger" depart="513.00" departLane="best">
        <route edges="B1B2 B2B3 B3C3 C3D3 D3D4"/>
    </vehicle>
    <vehicle id="veh172" type="veh_passenger" depart="516.00" departLane="best" departSpeed="max">
        <route edges="A1B1 B1B2 B2C2 C2D2 D2E2"/>
    </vehicle>
    <vehicle id="veh173" type="veh_passenger" depart="519.00" departLane="best" departSpeed="max">
        <route edges="A3B3 B3C3 C3C2 C2C1 C1C0"/>
    </vehicle>
    <vehicle id="veh174" type="veh_passenger" depart="522.00" departLane="best">
        <route edges="B1C1 C1C2 C2D2 D2E2"/>
    </vehicle>
    <vehicle id="veh175" type="veh_passenger" depart="525.00" departLane="best" departSpeed="max">
        <route edges="E3D3 D3C3 C3B3 B3A3"/>
    </vehicle>
    <vehicle id="veh176" type="veh_passenger" depart="528.00" departLane="best" departSpeed="max">
        <route edges="E3D3 D3D2 D2D1 D1D0"/>
    </vehicle>
    <vehicle id="veh177" type="veh_passenger" depart="531.00" departLane="best" departSpeed="max">
        <route edges="A1B1 B1C1 C1C2 C2C3 C3C4"/>
    </vehicle>
    <vehicle id="veh178" type="veh_passenger" depart="534.00" departLane="best">
        <route edges="B2C2 C2D2 D2E2"/>
    </vehicle>
    <vehicle id="veh179" type="veh_passenger" depart="537.00" departLane="best" departSpeed="max">
        <route edges="D0D1 D1D2 D2D3 D3D4"/>
    </vehicle>
    <vehicle id="veh180" type="veh_passenger" depart="540.00" departLane="best">
        <route edges="C1B1 B1B2 B2C2 C2C3 C3C4"/>
    </vehicle>
    <vehicle id="veh181" type="veh_passenger" depart="543.00" departLane="best">
        <route edges="B2C2 C2D2 D2D1 D1E1"/>
    </vehicle>
    <vehicle id="veh182" type="veh_passenger" depart="546.00" departLane="best" departSpeed="max">
        <route edges="E1D1 D1C1 C1C2 C2C3 C3B3 B3A3"/>
    </vehicle>
    <vehicle id="veh183" type="veh_passenger" depart="549.00" departLane="best" departSpeed="max">