<?xml version="1.0" encoding="UTF-8"?>
<!-- generated on 2020-05-27 20:29:11.735320 by randomTrips.py v1_6_0+0003-190709904e
  options: -n optimal.net.xml <doubleminus>seed 42 <doubleminus>fringe-factor 1 -p 3 -o optimal.pedestrian.trips.xml -e 1800 -r optimal.pedestrian.rou.xml <doubleminus>vehicle-class pedestrian <doubleminus>pedestrians <doubleminus>prefix ped <doubleminus>max-distance 1000
-->
<routes xmlns:xsi="http://www.w3.org/2001/XMLSchema-instance" xsi:noNamespaceSchemaLocation="http://sumo.dlr.de/xsd/routes_file.xsd">
    <vType id="ped_pedestrian" vClass="pedestrian"/>
    <person id="ped0" depart="0.00" type="ped_pedestrian">
        <walk from="C4C3" to="A2B2"/>
    </person>
    <person id="ped1" depart="3.00" type="ped_pedestrian">
        <walk from="B3B2" to="B2B3"/>
    </person>
    <person id="ped2" depart="6.00" type="ped_pedestrian">
        <walk from="D1E1" to="D1C1"/>
    </person>
    <person id="ped3" depart="9.00" type="ped_pedestrian">
        <walk from="D3D4" to="B1A1"/>
    </person>
    <person id="ped4" depart="12.00" type="ped_pedestrian">
        <walk from="C1C2" to="A2B2"/>
    </person>
    <person id="ped5" depart="15.00" type="ped_pedestrian">
        <walk from="B2B3" to="C2C3"/>
    </person>
    <person id="ped6" depart="18.00" type="ped_pedestrian">
        <walk from="A2B2" to="B2B1"/>
    </person>
    <person id="ped7" depart="21.00" type="ped_pedestrian">
        <walk from="D0D1" to="C3B3"/>
    </person>
    <person id="ped8" depart="24.00" type="ped_pedestrian">
        <walk from="B2B3" to="C3C4"/>
    </person>
    <person id="ped9" depart="27.00" type="ped_pedestrian">
        <walk from="D2D3" to="A1B1"/>
    </person>
    <person id="ped10" depart="30.00" type="ped_pedestrian">
        <walk from="D2D3" to="D1D0"/>
    </person>
    <person id="ped11" depart="33.00" type="ped_pedestrian">
        <walk from="B4B3" to="B1C1"/>
    </person>
    <person id="ped12" depart="36.00" type="ped_pedestrian">
        <walk from="E1D1" to="B4B3"/>
    </person>
    <person id="ped13" depart="39.00" type="ped_pedestrian">
        <walk from="B1A1" to="B1A1"/>
    </person>
    <person id="ped14" depart="42.00" type="ped_pedestrian">
        <walk from="D3C3" to="C3C4"/>
    </person>
    <person id="ped15" depart="45.00" type="ped_pedestrian">
        <walk from="D2D3" to="D1E1"/>
    </person>
    <person id="ped16" depart="48.00" type="ped_pedestrian">
        <walk from="C2D2" to="E2D2"/>
    </person>
    <person id="ped17" depart="51.00" type="ped_pedestrian">
        <walk from="C1B1" to="C3B3"/>
    </person>
    <person id="ped18" depart="54.00" type="ped_pedestrian">
        <walk from="D2E2" to="C3D3"/>
    </person>
    <person id="ped19" depart="57.00" type="ped_pedestrian">
        <walk from="D3D2" to="C3C2"/>
    </person>
    <person id="ped20" depart="60.00" type="ped_pedestrian">
        <walk from="D1D0" to="A3B3"/>
    </person>
    <person id="ped21" depart="63.00" type="ped_pedestrian">
        <walk from="B2B3" to="B3B2"/>
    </person>
    <person id="ped22" depart="66.00" type="ped_pedestrian">
        <walk from="B0B1" to="B2C2"/>
    </person>
    <person id="ped23" depart="69.00" type="ped_pedestrian">
        <walk from="B1A1" to="B3B2"/>
    </person>
    <person id="ped24" depart="72.00" type="ped_pedestrian">
        <walk from="C4C3" to="C0C1"/>
    </person>
    <person id="ped25" depart="75.00" type="ped_pedestrian">
        <walk from="C0C1" to="B2B3"/>
    </person>
    <person id="ped26" depart="78.00" type="ped_pedestrian">
        <walk from="B3A3" to="D4D3"/>
    </person>
    <person id="ped27" depart="81.00" type="ped_pedestrian">
        <walk from="D0D1" to="C3D3"/>
    </person>
    <person id="ped28" depart="84.00" type="ped_pedestrian">
        <walk from="B2A2" to="D1D2"/>
    </person>
    <person id="ped29" depart="87.00" type="ped_pedestrian">
        <walk from="B1C1" to="C1B1"/>
    </person>
    <person id="ped30" depart="90.00" type="ped_pedestrian">
        <walk from="E3D3" to="C4C3"/>
    </person>
    <person id="ped31" depart="93.00" type="ped_pedestrian">
        <walk from="C3B3" to="D1C1"/>
    </person>
    <person id="ped32" depart="96.00" type="ped_pedestrian">
        <walk from="D3C3" to="D2D1"/>
    </person>
    <person id="ped33" depart="99.00" type="ped_pedestrian">
        <walk from="B2B3" to="A2B2"/>
    </person>
    <person id="ped34" depart="102.00" type="ped_pedestrian">
        <walk from="B3C3" to="B3A3"/>
    </person>
    <person id="ped35" depart="105.00" type="ped_pedestrian">
        <walk from="B2B3" to="E1D1"/>
    </person>
    <person id="ped36" depart="108.00" type="ped_pedestrian">
        <walk from="D3D4" to="B3C3"/>
    </person>
    <person id="ped37" depart="111.00" type="ped_pedestrian">
        <walk from="D0D1" to="C1B1"/>
    </person>
    <person id="ped38" depart="114.00" type="ped_pedestrian">
        <walk from="D3E3" to="C2B2"/>
    </person>
    <person id="ped39" depart="117.00" type="ped_pedestrian">
        <walk from="B3A3" to="B2C2"/>
    </person>
    <person id="ped40" depart="120.00" type="ped_pedestrian">
        <walk from="C3B3" to="B3A3"/>
    </person>
    <person id="ped41" depart="123.00" type="ped_pedestrian">
        <walk from="C3C4" to="D3E3"/>
    </person>
    <person id="ped42" depart="126.00" type="ped_pedestrian">
        <walk from="C1C0" to="B2B3"/>
    </person>
    <person id="ped43" depart="129.00" type="ped_pedestrian">
        <walk from="E3D3" to="C2C3"/>
    </person>
    <person id="ped44" depart="132.00" type="ped_pedestrian">
        <walk from="B1A1" to="A3B3"/>
    </person>
    <person id="ped45" depart="135.00" type="ped_pedestrian">
        <walk from="B1B0" to="C4C3"/>
    </person>
    <person id="ped46" depart="138.00" type="ped_pedestrian">
        <walk from="D2D3" to="C1C2"/>
    </person>
    <person id="ped47" depart="141.00" type="ped_pedestrian">
        <walk from="B0B1" to="C1B1"/>
    </person>
    <person id="ped48" depart="144.00" type="ped_pedestrian">
        <walk from="E3D3" to="C2D2"/>
    </person>
    <person id="ped49" depart="147.00" type="ped_pedestrian">
        <walk from="E2D2" to="D3D2"/>
    </person>
    <person id="ped50" depart="150.00" type="ped_pedestrian">
        <walk from="A1B1" to="D1D2"/>
    </person>
    <person id="ped51" depart="153.00" type="ped_pedestrian">
        <walk from="D1C1" to="C2D2"/>
    </person>
    <person id="ped52" depart="156.00" type="ped_pedestrian">
        <walk from="B3A3" to="C4C3"/>
    </person>
    <person id="ped53" depart="159.00" type="ped_pedestrian">
        <walk from="B1B0" to="C1C2"/>
    </person>
    <person id="ped54" depart="162.00" type="ped_pedestrian">
        <walk from="C1D1" to="E1D1"/>
    </person>
    <person id="ped55" depart="165.00" type="ped_pedestrian">
        <walk from="D3D4" to="B3A3"/>
    </person>
    <person id="ped56" depart="168.00" type="ped_pedestrian">
        <walk from="C2C3" to="B2A2"/>
    </person>
    <person id="ped57" depart="171.00" type="ped_pedestrian">
        <walk from="D3E3" to="D3D2"/>
    </person>
    <person id="ped58" depart="174.00" type="ped_pedestrian">
        <walk from="B3B4" to="C4C3"/>
    </person>
    <person id="ped59" depart="177.00" type="ped_pedestrian">
        <walk from="C3D3" to="B1C1"/>
    </person>
    <person id="ped60" depart="180.00" type="ped_pedestrian">
        <walk from="D2C2" to="C2D2"/>
    </person>
    <person id="ped61" depart="183.00" type="ped_pedestrian">
        <walk from="D2D1" to="C2D2"/>
    </person>
    <person id="ped62" depart="186.00" type="ped_pedestrian">
        <walk from="A1B1" to="B3C3"/>
    </person>
    <person id="ped63" depart="189.00" type="ped_pedestrian">
        <walk from="A1B1" to="D4D3"/>
    </person>
    <person id="ped64" depart="192.00" type="ped_pedestrian">
        <walk from="D3D4" to="D2E2"/>
    </person>
    <person id="ped65" depart="195.00" type="ped_pedestrian">
        <walk from="B3B4" to="A3B3"/>
    </person>
    <person id="ped66" depart="198.00" type="ped_pedestrian">
        <walk from="D3D4" to="E1D1"/>
    </person>
    <person id="ped67" depart="201.00" type="ped_pedestrian">
        <walk from="B1A1" to="C2C1"/>
    </person>
    <person id="ped68" depart="204.00" type="ped_pedestrian">
        <walk from="B0B1" to="D2C2"/>
    </person>
    <person id="ped69" depart="207.00" type="ped_pedestrian">
        <walk from="D2C2" to="B1B2"/>
    </person>
    <person id="ped70" depart="210.00" type="ped_pedestrian">
        <walk from="C2B2" to="C3B3"/>
    </person>
    <person id="ped71" depart="213.00" type="ped_pedestrian">
        <walk from="B3A3" to="D3D2"/>
    </person>
    <person id="ped72" depart="216.00" type="ped_pedestrian">
        <walk from="C1C2" to="B2B3"/>
    </person>
    <person id="ped73" depart="219.00" type="ped_pedestrian">
        <walk from="C2D2" to="D1E1"/>
    </person>
    <person id="ped74" depart="222.00" type="ped_pedestrian">
        <walk from="B2B1" to="B3B4"/>
    </person>
    <person id="ped75" depart="225.00" type="ped_pedestrian">
        <walk from="E3D3" to="D0D1"/>
    </person>
    <person id="ped76" depart="228.00" type="ped_pedestrian">
        <walk from="C1D1" to="C2C3"/>
    </person>
    <person id="ped77" depart="231.00" type="ped_pedestrian">
        <walk from="B1B0" to="B2B3"/>
    </person>
    <person id="ped78" depart="234.00" type="ped_pedestrian">
        <walk from="B4B3" to="C3C4"/>
    </person>
    <person id="ped79" depart="237.00" type="ped_pedestrian">
        <walk from="B2C2" to="B2B3"/>
    </person>
    <person id="ped80" depart="240.00" type="ped_pedestrian">
        <walk from="B0B1" to="C4C3"/>
    </person>
    <person id="ped81" depart="243.00" type="ped_pedestrian">
        <walk from="B2B3" to="D3E3"/>
    </person>
    <person id="ped82" depart="246.00" type="ped_pedestrian">
        <walk from="D3D2" to="B0B1"/>
    </person>
    <person id="ped83" depart="249.00" type="ped_pedestrian">
        <walk from="B2C2" to="D1C1"/>
    </person>
    <person id="ped84" depart="252.00" type="ped_pedestrian">
        <walk from="B2B3" to="B1B2"/>
    </person>
    <person id="ped85" depart="255.00" type="ped_pedestrian">
        <walk from="D4D3" to="C3C2"/>
    </person>
    <person id="ped86" depart="258.00" type="ped_pedestrian">
        <walk from="C2B2" to="D2D1"/>
    </person>
    <person id="ped87" depart="261.00" type="ped_pedestrian">
        <walk from="D2D3" to="B2B1"/>
    </person>
    <person id="ped88" depart="264.00" type="ped_pedestrian">
        <walk from="B1A1" to="C1C2"/>
    </person>
    <person id="ped89" depart="267.00" type="ped_pedestrian">
        <walk from="C1C2" to="C2B2"/>
    </person>
    <person id="ped90" depart="270.00" type="ped_pedestrian">
        <walk from="D1D2" to="D1C1"/>
    </person>
    <person id="ped91" depart="273.00" type="ped_pedestrian">
        <walk from="E3D3" to="B1A1"/>
    </person>
    <person id="ped92" depart="276.00" type="ped_pedestrian">
        <walk from="C1C0" to="B4B3"/>
    </person>
    <person id="ped93" depart="279.00" type="ped_pedestrian">
        <walk from="D3D2" to="B2C2"/>
    </person>
    <person id="ped94" depart="282.00" type="ped_pedestrian">
        <walk from="B2B1" to="C1D1"/>
    </person>
    <person id="ped95" depart="285.00" type="ped_pedestrian">
        <walk from="C1C2" to="B3B2"/>
    </person>
    <person id="ped96" depart="288.00" type="ped_pedestrian">
        <walk from="B2C2" to="D4D3"/>
    </person>
    <person id="ped97" depart="291.00" type="ped_pedestrian">
        <walk from="C1D1" to="D3D2"/>
    </person>
    <person id="ped98" depart="294.00" type="ped_pedestrian">
        <walk from="C3B3" to="A3B3"/>
    </person>
    <person id="ped99" depart="297.00" type="ped_pedestrian">
        <walk from="E3D3" to="D3C3"/>
    </person>
    <person id="ped100" depart="300.00" type="ped_pedestrian">
        <walk from="E2D2" to="D4D3"/>
    </person>
    <person id="ped101" depart="303.00" type="ped_pedestrian">
        <walk from="D3C3" to="B1C1"/>
    </person>
    <person id="ped102" depart="306.00" type="ped_pedestrian">
        <walk from="C2C1" to="B2B3"/>
    </person>
    <person id="ped103" depart="309.00" type="ped_pedestrian">
        <walk from="C1C0" to="A3B3"/>
    </person>
    <person id="ped104" depart="312.00" type="ped_pedestrian">
        <walk from="C1B1" to="E3D3"/>
    </person>
    <person id="ped105" depart="315.00" type="ped_pedestrian">
        <walk from="B3A3" to="D2D1"/>
    </person>
    <person id="ped106" depart="318.00" type="ped_pedestrian">
        <walk from="C1D1" to="C1C2"/>
    </person>
    <person id="ped107" depart="321.00" type="ped_pedestrian">
        <walk from="E1D1" to="E3D3"/>
    </person>
    <person id="ped108" depart="324.00" type="ped_pedestrian">
        <walk from="C3B3" to="D1D2"/>
    </person>
    <person id="ped109" depart="327.00" type="ped_pedestrian">
        <walk from="B1C1" to="B3B4"/>
    </person>
    <person id="ped110" depart="330.00" type="ped_pedestrian">
        <walk from="E2D2" to="C3C2"/>
    </person>
    <person id="ped111" depart="333.00" type="ped_pedestrian">
        <walk from="C3B3" to="D1E1"/>
    </person>
    <person id="ped112" depart="336.00" type="ped_pedestrian">
        <walk from="A3B3" to="C3C4"/>
    </person>
    <person id="ped113" depart="339.00" type="ped_pedestrian">
        <walk from="C2C3" to="D3C3"/>
    </person>
    <person id="ped114" depart="342.00" type="ped_pedestrian">
        <walk from="B1C1" to="E2D2"/>
    </person>
    <person id="ped115" depart="345.00" type="ped_pedestrian">
        <walk from="B0B1" to="B2A2"/>
    </person>
    <person id="ped116" depart="348.00" type="ped_pedestrian">
        <walk from="C3C4" to="D1C1"/>
    </person>
    <person id="ped117" depart="351.00" type="ped_pedestrian">
        <walk from="B2C2" to="B1B0"/>
    </person>
    <person id="ped118" depart="354.00" type="ped_pedestrian">
        <walk from="D3D4" to="B2C2"/>
    </person>
    <person id="ped119" depart="357.00" type="ped_pedestrian">
        <walk from="C3C4" to="C3D3"/>
    </person>
    <person id="ped120" depart="360.00" type="ped_pedestrian">
        <walk from="C1C2" to="C3C4"/>
    </person>
    <person id="ped121" depart="363.00" type="ped_pedestrian">
        <walk from="C2D2" to="D4D3"/>
    </person>
    <person id="ped122" depart="366.00" type="ped_pedestrian">
        <walk from="B2B1" to="D1D2"/>
    </person>
    <person id="ped123" depart="369.00" type="ped_pedestrian">
        <walk from="B2C2" to="C1B1"/>
    </person>
    <person id="ped124" depart="372.00" type="ped_pedestrian">
        <walk from="D1C1" to="B3B4"/>
    </person>
    <person id="ped125" depart="375.00" type="ped_pedestrian">
        <walk from="B3C3" to="D2C2"/>
    </person>
    <person id="ped126" depart="378.00" type="ped_pedestrian">
        <walk from="B0B1" to="C1D1"/>
    </person>
    <person id="ped127" depart="381.00" type="ped_pedestrian">
        <walk from="E3D3" to="E3D3"/>
    </person>
    <person id="ped128" depart="384.00" type="ped_pedestrian">
        <walk from="B0B1" to="B2B3"/>
    </person>
    <person id="ped129" depart="387.00" type="ped_pedestrian">
        <walk from="B3A3" to="D4D3"/>
    </person>
    <person id="ped130" depart="390.00" type="ped_pedestrian">
        <walk from="D3D4" to="D3D4"/>
    </person>
    <person id="ped131" depart="393.00" type="ped_pedestrian">
        <walk from="C0C1" to="B1C1"/>
    </person>
    <person id="ped132" depart="396.00" type="ped_pedestrian">
        <walk from="D3C3" to="D1D0"/>
    </person>
    <person id="ped133" depart="399.00" type="ped_pedestrian">
        <walk from="C3D3" to="E3D3"/>
    </person>
    <person id="ped134" depart="402.00" type="ped_pedestrian">
        <walk from="D0D1" to="A1B1"/>
    </person>
    <person id="ped135" depart="405.00" type="ped_pedestrian">
        <walk from="D2E2" to="B3B4"/>
    </person>
    <person id="ped136" depart="408.00" type="ped_pedestrian">
        <walk from="D0D1" to="E1D1"/>
    </person>
    <person id="ped137" depart="411.00" type="ped_pedestrian">
        <walk from="B1B2" to="B1B0"/>
    </person>
    <person id="ped138" depart="414.00" type="ped_pedestrian">
        <walk from="B1B0" to="C3B3"/>
    </person>
    <person id="ped139" depart="417.00" type="ped_pedestrian">
        <walk from="B3B2" to="C3D3"/>
    </person>
    <person id="ped140" depart="420.00" type="ped_pedestrian">
        <walk from="D1D2" to="B2B1"/>
    </person>
    <person id="ped141" depart="423.00" type="ped_pedestrian">
        <walk from="C4C3" to="B3A3"/>
    </person>
    <person id="ped142" depart="426.00" type="ped_pedestrian">
        <walk from="C2C1" to="D3E3"/>
    </person>
    <person id="ped143" depart="429.00" type="ped_pedestrian">
        <walk from="D3C3" to="B1A1"/>
    </person>
    <person id="ped144" depart="432.00" type="ped_pedestrian">
        <walk from="C1C2" to="B3B2"/>
    </person>
    <person id="ped145" depart="435.00" type="ped_pedestrian">
        <walk from="A1B1" to="D2D1"/>
    </person>
    <person id="ped146" depart="438.00" type="ped_pedestrian">
        <walk from="C4C3" to="B3A3"/>
    </person>
    <person id="ped147" depart="441.00" type="ped_pedestrian">
        <walk from="D1E1" to="C3B3"/>
    </person>
    <person id="ped148" depart="444.00" type="ped_pedestrian">
        <walk from="C1C2" to="A1B1"/>
    </person>
    <person id="ped149" depart="447.00" type="ped_pedestrian">
        <walk from="B0B1" to="D3D4"/>
    </person>
    <person id="ped150" depart="450.00" type="ped_pedestrian">
        <walk from="D3E3" to="C3B3"/>
    </person>
    <person id="ped151" depart="453.00" type="ped_pedestrian">
        <walk from="D3C3" to="C3C2"/>
    </person>
    <person id="ped152" depart="456.00" type="ped_pedestrian">
        <walk from="B1C1" to="B1B2"/>
    </person>
    <person id="ped153" depart="459.00" type="ped_pedestrian">
        <walk from="B3B4" to="D3E3"/>
    </person>
    <person id="ped154" depart="462.00" type="ped_pedestrian">
        <walk from="D2D3" to="D3D2"/>
    </person>
    <person id="ped155" depart="465.00" type="ped_pedestrian">
        <walk from="D3E3" to="B2B3"/>
    </person>
    <person id="ped156" depart="468.00" type="ped_pedestrian">
        <walk from="B2C2" to="B1A1"/>
    </person>
    <person id="ped157" depart="471.00" type="ped_pedestrian">
        <walk from="D2D1" to="D3D4"/>
    </person>
    <person id="ped158" depart="474.00" type="ped_pedestrian">
        <walk from="C1C0" to="C3D3"/>
    </person>
    <person id="ped159" depart="477.00" type="ped_pedestrian">
        <walk from="B1C1" to="D4D3"/>
    </person>
    <person id="ped160" depart="480.00" type="ped_pedestrian">
        <walk from="D3D2" to="E2D2"/>
    </person>
    <person id="ped161" depart="483.00" type="ped_pedestrian">
        <walk from="D2D3" to="D3D4"/>
    </person>
    <person id="ped162" depart="486.00" type="ped_pedestrian">
        <walk from="A2B2" to="D1E1"/>
    </person>
    <person id="ped163" depart="489.00" type="ped_pedestrian">
        <walk from="B3C3" to="D4D3"/>
    </person>
    <person id="ped164" depart="492.00" type="ped_pedestrian">
        <walk from="D2D3" to="D3D2"/>
    </person>
    <person id="ped165" depart="495.00" type="ped_pedestrian">
        <walk from="D2D3" to="B3A3"/>
    </person>
    <person id="ped166" depart="498.00" type="ped_pedestrian">
        <walk from="D2D1" to="B1B0"/>
    </person>
    <person id="ped167" depart="501.00" type="ped_pedestrian">
        <walk from="D3D2" to="D3D2"/>
    </person>
    <person id="ped168" depart="504.00" type="ped_pedestrian">
        <walk from="B2B3" to="D2E2"/>
    </person>
    <person id="ped169" depart="507.00" type="ped_pedestrian">
        <walk from="C2B2" to="B3B4"/>
    </person>
    <person id="ped170" depart="510.00" type="ped_pedestrian">
        <walk from="D2D3" to="B2B3"/>
    </person>
    <person id="ped171" depart="513.00" type="ped_pedestrian">
        <walk from="A2B2" to="B2B1"/>
    </person>
    <person id="ped172" depart="516.00" type="ped_pedestrian">
        <walk from="B3C3" to="D3D2"/>
    </person>
    <person id="ped173" depart="519.00" type="ped_pedestrian">
        <walk from="E2D2" to="B3B2"/>
    </person>
    <person id="ped174" depart="522.00" type="ped_pedestrian">
        <walk from="C4C3" to="C1C0"/>
    </person>
    <person id="ped175" depart="525.00" type="ped_pedestrian">
        <walk from="E3D3" to="C2D2"/>
    </person>
    <person id="ped176" depart="528.00" type="ped_pedestrian">
        <walk from="E1D1" to="B1B0"/>
    </person>
    <person id="ped177" depart="531.00" type="ped_pedestrian">
        <walk from="E2D2" to="B2A2"/>
    </person>
    <person id="ped178" depart="534.00" type="ped_pedestrian">
        <walk from="E2D2" to="B3A3"/>
    </person>
    <person id="ped179" depart="537.00" type="ped_pedestrian">
        <walk from="B1B0" to="C1C2"/>
    </person>
    <person id="ped180" depart="540.00" type="ped_pedestrian">
        <walk from="D1D2" to="B3C3"/>
    </person>
    <person id="ped181" depart="543.00" type="ped_pedestrian">
        <walk from="C3D3" to="C2C3"/>
    </person>
    <person id="ped182" depart="546.00" type="ped_pedestrian">
        <walk from="C1B1" to="C3C2"/>
    </person>
    <person id="ped183" depart="549.00" type="ped_pedestrian">
        <walk from="B3A3" to="D1D2"/>
    </person>
    <person id="ped184" depart="552.00" type="ped_pedestrian">
        <walk from="A1B1" to="D4D3"/>
    </person>
    <person id="ped185" depart="555.00" type="ped_pedestrian">
        <walk from="C2D2" to="D1D2"/>
    </person>
    <person id="ped186" depart="558.00" type="ped_pedestrian">
        <walk from="D1E1" to="D1C1"/>
    </person>
    <person id="ped187" depart="561.00" type="ped_pedestrian">
        <walk from="C0C1" to="B0B1"/>
    </person>
    <person id="ped188" depart="564.00" type="ped_pedestrian">
        <walk from="D0D1" to="B3C3"/>
    </person>
    <person id="ped189" depart="567.00" type="ped_pedestrian">
        <walk from="B3C3" to="D3C3"/>
    </person>
    <person id="ped190" depart="570.00" type="ped_pedestrian">
        <walk from="D1D2" to="B3B4"/>
    </person>
    <person id="ped191" depart="573.00" type="ped_pedestrian">
        <walk from="B3B4" to="C1C0"/>
    </person>
    <person id="ped192" depart="576.00" type="ped_pedestrian">
        <walk from="C1C0" to="B3B4"/>
    </person>
    <person id="ped193" depart="579.00" type="ped_pedestrian">
        <walk from="B1B2" to="C1C2"/>
    </person>
    <person id="ped194" depart="582.00" type="ped_pedestrian">
        <walk from="E1D1" to="D1C1"/>
    </person>
    <person id="ped195" depart="585.00" type="ped_pedestrian">
        <walk from="D3E3" to="C3D3"/>
    </person>
    <person id="ped196" depart="588.00" type="ped_pedestrian">
        <walk from="B3B4" to="C3B3"/>
    </person>
    <person id="ped197" depart="591.00" type="ped_pedestrian">
        <walk from="A1B1" to="B3B2"/>
    </person>
    <person id="ped198" depart="594.00" type="ped_pedestrian">
        <walk from="C1C2" to="C3C2"/>
    </person>
    <person id="ped199" depart="597.00" type="ped_pedestrian">
        <walk from="D0D1" to="C2B2"/>
    </person>
    <person id="ped200" depart="600.00" type="ped_pedestrian">
        <walk from="C1D1" to="B2B3"/>
    </person>
    <person id="ped201" depart="603.00" type="ped_pedestrian">
        <walk from="C2B2" to="D3E3"/>
    </person>
    <person id="ped202" depart="606.00" type="ped_pedestrian">
        <walk from="D2D3" to="B2A2"/>
    </person>
    <person id="ped203" depart="609.00" type="ped_pedestrian">
        <walk from="B1A1" to="C2C3"/>
    </person>
    <person id="ped204" depart="612.00" type="ped_pedestrian">
        <walk from="C4C3" to="B4B3"/>
    </person>
    <person id="ped205" depart="615.00" type="ped_pedestrian">
        <walk from="D2E2" to="D2C2"/>
    </person>
    <person id="ped206" depart="618.00" type="ped_pedestrian">
        <walk from="D1C1" to="B2B3"/>
    </person>
    <person id="ped207" depart="621.00" type="ped_pedestrian">
        <walk from="B2B1" to="A2B2"/>
    </person>
    <person id="ped208" depart="624.00" type="ped_pedestrian">
        <walk from="B2C2" to="C2B2"/>
    </person>
    <person id="ped209" depart="627.00" type="ped_pedestrian">
        <walk from="D3C3" to="B0B1"/>
    </person>
    <person id="ped210" depart="630.00" type="ped_pedestrian">
        <walk from="C1C0" to="C4C3"/>
    </person>
    <person id="ped211" depart="633.00" type="ped_pedestrian">
        <walk from="B2B1" to="D1D0"/>
    </person>
    <person id="ped212" depart="636.00" type="ped_pedestrian">
        <walk from="C2C1" to="B2C2"/>
    </person>
    <person id="ped213" depart="639.00" type="ped_pedestrian">
        <walk from="D0D1" to="A1B1"/>
    </person>
    <person id="ped214" depart="642.00" type="ped_pedestrian">
        <walk from="D2C2" to="D2C2"/>
    </person>
    <person id="ped215" depart="645.00" type="ped_pedestrian">
        <walk from="B1B0" to="C1C2"/>
    </person>
    <person id="ped216" depart="648.00" type="ped_pedestrian">
        <walk from="B2A2" to="E1D1"/>
    </person>
    <person id="ped217" depart="651.00" type="ped_pedestrian">
        <walk from="C2C3" to="A3B3"/>
    </person>
    <person id="ped218" depart="654.00" type="ped_pedestrian">
        <walk from="B2C2" to="D3C3"/>
    </person>
    <person id="ped219" depart="657.00" type="ped_pedestrian">
        <walk from="C1D1" to="D2D3"/>
    </person>
    <person id="ped220" depart="660.00" type="ped_pedestrian">
        <walk from="D1C1" to="E3D3"/>
    </person>
    <person id="ped221" depart="663.00" type="ped_pedestrian">
        <walk from="C3C4" to="E1D1"/>
    </person>
    <person id="ped222" depart="666.00" type="ped_pedestrian">
        <walk from="D3D4" to="C3D3"/>
    </person>
    <person id="ped223" depart="669.00" type="ped_pedestrian">
        <walk from="D1D2" to="C2C3"/>
    </person>
    <person id="ped224" depart="672.00" type="ped_pedestrian">
        <walk from="D2E2" to="C3B3"/>
    </person>
    <person id="ped225" depart="675.00" type="ped_pedestrian">
        <walk from="D3E3" to="D1E1"/>
    </person>
    <person id="ped226" depart="678.00" type="ped_pedestrian">
        <walk from="C2B2" to="B3A3"/>
    </person>
    <person id="ped227" depart="681.00" type="ped_pedestrian">
        <walk from="B2C2" to="C4C3"/>
    </person>
    <person id="ped228" depart="684.00" type="ped_pedestrian">
        <walk from="D2C2" to="C2D2"/>
    </person>
    <person id="ped229" depart="687.00" type="ped_pedestrian">
        <walk from="C4C3" to="B3B2"/>
    </person>
    <person id="ped230" depart="690.00" type="ped_pedestrian">
        <walk from="B0B1" to="B3B2"/>
    </person>
    <person id="ped231" depart="693.00" type="ped_pedestrian">
        <walk from="B3B2" to="B3C3"/>
    </person>
    <person id="ped232" depart="696.00" type="ped_pedestrian">
        <walk from="C2D2" to="B1B2"/>
    </person>
    <person id="ped233" depart="699.00" type="ped_pedestrian">
        <walk from="B2C2" to="D1D0"/>
    </person>
    <person id="ped234" depart="702.00" type="ped_pedestrian">
        <walk from="D1D0" to="B0B1"/>
    </person>
    <person id="ped235" depart="705.00" type="ped_pedestrian">
        <walk from="C1C0" to="C3B3"/>
    </person>
    <person id="ped236" depart="708.00" type="ped_pedestrian">
        <walk from="C1C0" to="B2B1"/>
    </person>
    <person id="ped237" depart="711.00" type="ped_pedestrian">
        <walk from="C1C2" to="D3E3"/>
    </person>
    <person id="ped238" depart="714.00" type="ped_pedestrian">
        <walk from="C3C4" to="D1D0"/>
    </person>
    <person id="ped239" depart="717.00" type="ped_pedestrian">
        <walk from="D3D2" to="D2C2"/>
    </person>
    <person id="ped240" depart="720.00" type="ped_pedestrian">
        <walk from="C1B1" to="A1B1"/>
    </person>
    <person id="ped241" depart="723.00" type="ped_pedestrian">
        <walk from="B4B3" to="D2C2"/>
    </person>
    <person id="ped242" depart="726.00" type="ped_pedestrian">
        <walk from="D3C3" to="E1D1"/>
    </person>
    <person id="ped243" depart="729.00" type="ped_pedestrian">
        <walk from="C1C2" to="D1E1"/>
    </person>
    <person id="ped244" depart="732.00" type="ped_pedestrian">
        <walk from="C3B3" to="C3C4"/>
    </person>
    <person id="ped245" depart="735.00" type="ped_pedestrian">
        <walk from="B2B3" to="B2B3"/>
    </person>
    <person id="ped246" depart="738.00" type="ped_pedestrian">
        <walk from="C1C2" to="A2B2"/>
    </person>
    <person id="ped247" depart="741.00" type="ped_pedestrian">
        <walk from="B4B3" to="D1C1"/>
    </person>
    <person id="ped248" depart="744.00" type="ped_pedestrian">
        <walk from="C1C0" to="B1C1"/>
    </person>
    <person id="ped249" depart="747.00" type="ped_pedestrian">
        <walk from="C2B2" to="B1B2"/>
    </person>
    <person id="ped250" depart="750.00" type="ped_pedestrian">
        <walk from="C3D3" to="A2B2"/>
    </person>
    <person id="ped251" depart="753.00" type="ped_pedestrian">
        <walk from="C1B1" to="C3C2"/>
    </person>
    <person id="ped252" depart="756.00" type="ped_pedestrian">
        <walk from="A2B2" to="C4C3"/>
    </person>
    <person id="ped253" depart="759.00" type="ped_pedestrian">
        <walk from="B1B2" to="C2B2"/>
    </person>
    <person id="ped254" depart="762.00" type="ped_pedestrian">
        <walk from="A3B3" to="C1B1"/>
    </person>
    <person id="ped255" depart="765.00" type="ped_pedestrian">
        <walk from="B2B3" to="B3C3"/>
    </person>
    <person id="ped256" depart="768.00" type="ped_pedestrian">
        <walk from="D2C2" to="C1B1"/>
    </person>