<?xml version="1.0" encoding="UTF-8"?>

<!-- generated on jue 05 dic 2019 11:13:23 -03 by Eclipse SUMO netedit Version 1.3.1
<configuration xmlns:xsi="http://www.w3.org/2001/XMLSchema-instance" xsi:noNamespaceSchemaLocation="http://sumo.dlr.de/xsd/netconvertConfiguration.xsd">

    <input>
        <sumo-net-file value="optimal2.net.xml"/>
    </input>

    <output>
        <output-file value="/home/pandora/Desktop/Jose_Proyecto/ProyectoTesis/Simulación/SUMO/SanDiego/SUMO_SanDiego_Pilot1/MicroDescongest/optimal/optimal3.net.xml"/>
    </output>

    <processing>
        <geometry.max-grade.fix value="false"/>
        <offset.disable-normalization value="true"/>
        <opposites.guess.fix-lengths value="true"/>
        <lefthand value="false"/>
    </processing>

    <junctions>
        <no-turnarounds value="true"/>
        <junctions.corner-detail value="5"/>
        <junctions.limit-turn-speed value="5.5"/>
        <rectangular-lane-cut value="false"/>
    </junctions>

    <pedestrian>
        <walkingareas value="false"/>
    </pedestrian>

</configuration>
-->

<additional xmlns:xsi="http://www.w3.org/2001/XMLSchema-instance" xsi:noNamespaceSchemaLocation="http://sumo.dlr.de/xsd/additional_file.xsd">
    <tlLogic id="intersection/0002/tls" type="static" programID="0" offset="0">
	<phase duration="20" state="rrrrrrrrrrGGrrrrrrrrrrGG"/>
        <phase duration="3" state="rrrrrrrrrryyrrrrrrrrrryy"/>
        <phase duration="2" state="rrrrrrrrrrrrrrrrrrrrrrrr"/>        
	<phase duration="20" state="rrrrrrGGGGrrrrrrrrGGGGrr"/>
        <phase duration="3" state="rrrrrryyyyrrrrrrrryyyyrr"/>
        <phase duration="2" state="rrrrrrrrrrrrrrrrrrrrrrrr"/>
	<phase duration="20" state="rrrrGGrrrrrrrrrrGGrrrrrr"/>
        <phase duration="3" state="rrrryyrrrrrrrrrryyrrrrrr"/>
        <phase duration="2" state="rrrrrrrrrrrrrrrrrrrrrrrr"/>
	<phase duration="20" state="GGGGrrrrrrrrGGGGrrrrrrrr"/>
        <phase duration="3" state="yyyyrrrrrrrryyyyrrrrrrrr"/>
        <phase duration="2" state="rrrrrrrrrrrrrrrrrrrrrrrr"/>      
    </tlLogic>
    <tlLogic id="intersection/0003/tls" type="static" programID="0" offset="0">
	<phase duration="20" state="rrrrrrrrrrGGrrrrrrrrrrGG"/>
        <phase duration="3" state="rrrrrrrrrryyrrrrrrrrrryy"/>
        <phase duration="2" state="rrrrrrrrrrrrrrrrrrrrrrrr"/>        
	<phase duration="20" state="rrrrrrGGGGrrrrrrrrGGGGrr"/>
        <phase duration="3" state="rrrrrryyyyrrrrrrrryyyyrr"/>
        <phase duration="2" state="rrrrrrrrrrrrrrrrrrrrrrrr"/>
	<phase duration="20" state="rrrrGGrrrrrrrrrrGGrrrrrr"/>
        <phase duration="3" state="rrrryyrrrrrrrrrryyrrrrrr"/>
        <phase duration="2" state="rrrrrrrrrrrrrrrrrrrrrrrr"/>
	<phase duration="20" state="GGGGrrrrrrrrGGGGrrrrrrrr"/>
        <phase duration="3" state="yyyyrrrrrrrryyyyrrrrrrrr"/>
        <phase duration="2" state="rrrrrrrrrrrrrrrrrrrrrrrr"/>      
    </tlLogic>
    <tlLogic id="intersection/0004/tls" type="static" programID="0" offset="0">
	<phase duration="20" state="rrrrrrrrrrGGrrrrrrrrrrGG"/>
        <phase duration="3" state="rrrrrrrrrryyrrrrrrrrrryy"/>
        <phase duration="2" state="rrrrrrrrrrrrrrrrrrrrrrrr"/>        
	<phase duration="20" state="rrrrrrGGGGrrrrrrrrGGGGrr"/>
        <phase duration="3" state="rrrrrryyyyrrrrrrrryyyyrr"/>
        <phase duration="2" state="rrrrrrrrrrrrrrrrrrrrrrrr"/>
	<phase duration="20" state="rrrrGGrrrrrrrrrrGGrrrrrr"/>
        <phase duration="3" state="rrrryyrrrrrrrrrryyrrrrrr"/>
        <phase duration="2" state="rrrrrrrrrrrrrrrrrrrrrrrr"/>
	<phase duration="20" state="GGGGrrrrrrrrGGGGrrrrrrrr"/>
        <phase duration="3" state="yyyyrrrrrrrryyyyrrrrrrrr"/>
        <phase duration="2" state="rrrrrrrrrrrrrrrrrrrrrrrr"/>      
    </tlLogic>
    <tlLogic id="intersection/0005/tls" type="static" programID="0" offset="0">
	<phase duration="20" state="rrrrrrrrrrGGrrrrrrrrrrGG"/>
        <phase duration="3" state="rrrrrrrrrryyrrrrrrrrrryy"/>
        <phase duration="2" state="rrrrrrrrrrrrrrrrrrrrrrrr"/>        
	<phase duration="20" state="rrrrrrGGGGrrrrrrrrGGGGrr"/>
        <phase duration="3" state="rrrrrryyyyrrrrrrrryyyyrr"/>
        <phase duration="2" state="rrrrrrrrrrrrrrrrrrrrrrrr"/>
	<phase duration="20" state="rrrrGGrrrrrrrrrrGGrrrrrr"/>
        <phase duration="3" state="rrrryyrrrrrrrrrryyrrrrrr"/>
        <phase duration="2" state="rrrrrrrrrrrrrrrrrrrrrrrr"/>
	<phase duration="20" state="GGGGrrrrrrrrGGGGrrrrrrrr"/>
        <phase duration="3" state="yyyyrrrrrrrryyyyrrrrrrrr"/>
        <phase duration="2" state="rrrrrrrrrrrrrrrrrrrrrrrr"/>      
    </tlLogic>
    <tlLogic id="intersection/0006/tls" type="static" programID="0" offset="0">
	<phase duration="20" state="rrrrrrrrrrGGrrrrrrrrrrGG"/>
        <phase duration="3" state="rrrrrrrrrryyrrrrrrrrrryy"/>
        <phase duration="2" state="rrrrrrrrrrrrrrrrrrrrrrrr"/>        
	<phase duration="20" state="rrrrrrGGGGrrrrrrrrGGGGrr"/>
        <phase duration="3" state="rrrrrryyyyrrrrrrrryyyyrr"/>
        <phase duration="2" state="rrrrrrrrrrrrrrrrrrrrrrrr"/>
	<phase duration="20" state="rrrrGGrrrrrrrrrrGGrrrrrr"/>
        <phase duration="3" state="rrrryyrrrrrrrrrryyrrrrrr"/>
        <phase duration="2" state="rrrrrrrrrrrrrrrrrrrrrrrr"/>
	<phase duration="20" state="GGGGrrrrrrrrGGGGrrrrrrrr"/>
        <phase duration="3" state="yyyyrrrrrrrryyyyrrrrrrrr"/>
        <phase duration="2" state="rrrrrrrrrrrrrrrrrrrrrrrr"/>      
    </tlLogic>
    <tlLogic id="intersection/0007/tls" type="static" programID="0" offset="0">
	<phase duration="20" state="rrrrrrrrrrGGrrrrrrrrrrGG"/>
        <phase duration="3" state="rrrrrrrrrryyrrrrrrrrrryy"/>
        <phase duration="2" state="rrrrrrrrrrrrrrrrrrrrrrrr"/>        
	<phase duration="20" state="rrrrrrGGGGrrrrrrrrGGGGrr"/>
        <phase duration="3" state="rrrrrryyyyrrrrrrrryyyyrr"/>
        <phase duration="2" state="rrrrrrrrrrrrrrrrrrrrrrrr"/>
	<phase duration="20" state="rrrrGGrrrrrrrrrrGGrrrrrr"/>
        <phase duration="3" state="rrrryyrrrrrrrrrryyrrrrrr"/>
        <phase duration="2" state="rrrrrrrrrrrrrrrrrrrrrrrr"/>
	<phase duration="20" state="GGGGrrrrrrrrGGGGrrrrrrrr"/>
        <phase duration="3" state="yyyyrrrrrrrryyyyrrrrrrrr"/>
        <phase duration="2" state="rrrrrrrrrrrrrrrrrrrrrrrr"/>      
    </tlLogic>
    <tlLogic id="intersection/0008/tls" type="static" programID="0" offset="0">
	<phase duration="20" state="rrrrrrrrrrGGrrrrrrrrrrGG"/>
        <phase duration="3" state="rrrrrrrrrryyrrrrrrrrrryy"/>
        <phase duration="2" state="rrrrrrrrrrrrrrrrrrrrrrrr"/>        
	<phase duration="20" state="rrrrrrGGGGrrrrrrrrGGGGrr"/>
        <phase duration="3" state="rrrrrryyyyrrrrrrrryyyyrr"/>
        <phase duration="2" state="rrrrrrrrrrrrrrrrrrrrrrrr"/>
	<phase duration="20" state="rrrrGGrrrrrrrrrrGGrrrrrr"/>
        <phase duration="3" state="rrrryyrrrrrrrrrryyrrrrrr"/>
        <phase duration="2" state="rrrrrrrrrrrrrrrrrrrrrrrr"/>
	<phase duration="20" state="GGGGrrrrrrrrGGGGrrrrrrrr"/>
        <phase duration="3" state="yyyyrrrrrrrryyyyrrrrrrrr"/>
        <phase duration="2" state="rrrrrrrrrrrrrrrrrrrrrrrr"/>      
    </tlLogic>
    <tlLogic id="intersection/0009/tls" type="static" programID="0" offset="0">
	<phase duration="20" state="rrrrrrrrrrGGrrrrrrrrrrGG"/>
        <phase duration="3" state="rrrrrrrrrryyrrrrrrrrrryy"/>
        <phase duration="2" state="rrrrrrrrrrrrrrrrrrrrrrrr"/>        
	<phase duration="20" state="rrrrrrGGGGrrrrrrrrGGGGrr"/>
        <phase duration="3" state="rrrrrryyyyrrrrrrrryyyyrr"/>
        <phase duration="2" state="rrrrrrrrrrrrrrrrrrrrrrrr"/>
	<phase duration="20" state="rrrrGGrrrrrrrrrrGGrrrrrr"/>
        <phase duration="3" state="rrrryyrrrrrrrrrryyrrrrrr"/>
        <phase duration="2" state="rrrrrrrrrrrrrrrrrrrrrrrr"/>
	<phase duration="20" state="GGGGrrrrrrrrGGGGrrrrrrrr"/>
        <phase duration="3" state="yyyyrrrrrrrryyyyrrrrrrrr"/>
        <phase duration="2" state="rrrrrrrrrrrrrrrrrrrrrrrr"/>      
    </tlLogic>
    <tlLogic id="intersection/0010/tls" type="static" programID="0" offset="0">
	<phase duration="20" state="rrrrrrrrrrGGrrrrrrrrrrGG"/>
        <phase duration="3" state="rrrrrrrrrryyrrrrrrrrrryy"/>
        <phase duration="2" state="rrrrrrrrrrrrrrrrrrrrrrrr"/>        
	<phase duration="20" state="rrrrrrGGGGrrrrrrrrGGGGrr"/>
        <phase duration="3" state="rrrrrryyyyrrrrrrrryyyyrr"/>
        <phase duration="2" state="rrrrrrrrrrrrrrrrrrrrrrrr"/>
	<phase duration="20" state="rrrrGGrrrrrrrrrrGGrrrrrr"/>
        <phase duration="3" state="rrrryyrrrrrrrrrryyrrrrrr"/>
        <phase duration="2" state="rrrrrrrrrrrrrrrrrrrrrrrr"/>
	<phase duration="20" state="GGGGrrrrrrrrGGGGrrrrrrrr"/>
        <phase duration="3" state="yyyyrrrrrrrryyyyrrrrrrrr"/>
        <phase duration="2" state="rrrrrrrrrrrrrrrrrrrrrrrr"/>      
    </tlLogic>
</additional>
