<?xml version="1.0" encoding="UTF-8"?>

<!-- generated on Mon Dec  9 23:24:54 2019 by Eclipse SUMO duarouter Version 1.3.1
<configuration xmlns:xsi="http://www.w3.org/2001/XMLSchema-instance" xsi:noNamespaceSchemaLocation="http://sumo.dlr.de/xsd/duarouterConfiguration.xsd">

    <input>
        <net-file value="optimal3.net.xml"/>
        <route-files value="optimal.bicycle.trips.xml"/>
    </input>

    <output>
        <output-file value="optimal.bicycle.trips.xml.tmp"/>
        <write-trips value="true"/>
    </output>

    <time>
        <begin value="0"/>
        <end value="3600.0"/>
    </time>

    <report>
        <no-warnings value="true"/>
        <ignore-errors value="true"/>
        <no-step-log value="true"/>
    </report>

</configuration>
-->

<routes xmlns:xsi="http://www.w3.org/2001/XMLSchema-instance" xsi:noNamespaceSchemaLocation="http://sumo.dlr.de/xsd/routes_file.xsd">
    <vType id="bike_bicycle" vClass="bicycle"/>
    <trip id="bike0" type="bike_bicycle" depart="0.00" departLane="best" departSpeed="max" from="C4C3" to="B1A1"/>
    <trip id="bike1" type="bike_bicycle" depart="7.58" departLane="best" from="B3B2" to="B2C2"/>
    <trip id="bike2" type="bike_bicycle" depart="15.15" departLane="best" from="D2C2" to="D1D0"/>
    <trip id="bike3" type="bike_bicycle" depart="22.73" departLane="best" departSpeed="max" from="E1D1" to="B1B2"/>
    <trip id="bike4" type="bike_bicycle" depart="30.30" departLane="best" from="C1C2" to="B1A1"/>
    <trip id="bike5" type="bike_bicycle" depart="37.88" departLane="best" from="B2B1" to="C2C3"/>
    <trip id="bike6" type="bike_bicycle" depart="45.45" departLane="best" departSpeed="max" from="A1B1" to="B2B3"/>
    <trip id="bike7" type="bike_bicycle" depart="53.03" departLane="best" departSpeed="max" from="D0D1" to="C3B3"/>
    <trip id="bike8" type="bike_bicycle" depart="60.60" departLane="best" from="B2B1" to="C3C4"/>
    <trip id="bike9" type="bike_bicycle" depart="68.18" departLane="best" from="D3C3" to="B1A1"/>
    <trip id="bike10" type="bike_bicycle" depart="75.75" departLane="best" from="D3C3" to="D1D0"/>
    <trip id="bike11" type="bike_bicycle" depart="83.33" departLane="best" departSpeed="max" from="B4B3" to="B2A2"/>
    <trip id="bike12" type="bike_bicycle" depart="90.91" departLane="best" departSpeed="max" from="E2D2" to="B3C3"/>
    <trip id="bike13" type="bike_bicycle" depart="98.48" departLane="best" departSpeed="max" from="A3B3" to="B1B2"/>
    <trip id="bike14" type="bike_bicycle" depart="106.06" departLane="best" departSpeed="max" from="D4D3" to="C3C4"/>
    <trip id="bike15" type="bike_bicycle" depart="113.63" departLane="best" from="D3C3" to="D1E1"/>
    <trip id="bike16" type="bike_bicycle" depart="121.21" departLane="best" from="C2D2" to="D3E3"/>
    <trip id="bike17" type="bike_bicycle" depart="128.78" departLane="best" departSpeed="max" from="C0C1" to="C3B3"/>
    <trip id="bike18" type="bike_bicycle" depart="136.36" departLane="best" from="D3D2" to="C3C4"/>
    <trip id="bike19" type="bike_bicycle" depart="143.93" departLane="best" departSpeed="max" from="D4D3" to="C3C2"/>
    <trip id="bike20" type="bike_bicycle" depart="151.51" departLane="best" from="D1C1" to="B1B0"/>
    <trip id="bike21" type="bike_bicycle" depart="159.08" departLane="best" from="B2B1" to="B3B2"/>
    <trip id="bike22" type="bike_bicycle" depart="166.66" departLane="best" departSpeed="max" from="A2B2" to="B3A3"/>
    <trip id="bike23" type="bike_bicycle" depart="174.24" departLane="best" departSpeed="max" from="A3B3" to="B3B2"/>
    <trip id="bike24" type="bike_bicycle" depart="181.81" departLane="best" departSpeed="max" from="C4C3" to="C1B1"/>
    <trip id="bike25" type="bike_bicycle" depart="189.39" departLane="best" departSpeed="max" from="C0C1" to="B2C2"/>
    <trip id="bike26" type="bike_bicycle" depart="196.96" departLane="best" from="B2C2" to="D3D4"/>
    <trip id="bike27" type="bike_bicycle" depart="204.54" departLane="best" departSpeed="max" from="D0D1" to="C3C4"/>
    <trip id="bike28" type="bike_bicycle" depart="212.11" departLane="best" from="B1B2" to="D1D2"/>
    <trip id="bike29" type="bike_bicycle" depart="219.69" departLane="best" departSpeed="max" from="B0B1" to="C1C0"/>
    <trip id="bike30" type="bike_bicycle" depart="227.26" departLane="best" departSpeed="max" from="E3D3" to="C3D3"/>
    <trip id="bike31" type="bike_bicycle" depart="234.84" departLane="best" from="C3B3" to="D1D0"/>
    <trip id="bike32" type="bike_bicycle" depart="242.41" departLane="best" departSpeed="max" from="D4D3" to="D2C2"/>
    <trip id="bike33" type="bike_bicycle" depart="249.99" departLane="best" from="B2B1" to="B1A1"/>
    <trip id="bike34" type="bike_bicycle" depart="257.57" departLane="best" departSpeed="max" from="B4B3" to="B3A3"/>
    <trip id="bike35" type="bike_bicycle" depart="265.14" departLane="best" from="B2B1" to="D3D4"/>
    <trip id="bike36" type="bike_bicycle" depart="272.72" departLane="best" departSpeed="max" from="E1D1" to="B3B4"/>
    <trip id="bike37" type="bike_bicycle" depart="280.29" departLane="best" departSpeed="max" from="D0D1" to="C1C0"/>
    <trip id="bike38" type="bike_bicycle" depart="287.87" departLane="best" departSpeed="max" from="E1D1" to="C2B2"/>
    <trip id="bike39" type="bike_bicycle" depart="295.44" departLane="best" from="B2C2" to="B3A3"/>
    <trip id="bike40" type="bike_bicycle" depart="303.02" departLane="best" from="C3B3" to="B3A3"/>
    <trip id="bike41" type="bike_bicycle" depart="310.59" departLane="best" from="C3D3" to="D3D2"/>
    <trip id="bike42" type="bike_bicycle" depart="318.17" departLane="best" from="C1B1" to="B2C2"/>
    <trip id="bike43" type="bike_bicycle" depart="325.74" departLane="best" departSpeed="max" from="E3D3" to="C2C3"/>
    <trip id="bike44" type="bike_bicycle" depart="333.32" departLane="best" departSpeed="max" from="A3B3" to="B1B0"/>
    <trip id="bike45" type="bike_bicycle" depart="340.90" departLane="best" departSpeed="max" from="A3B3" to="C3D3"/>
    <trip id="bike46" type="bike_bicycle" depart="348.47" departLane="best" from="D3C3" to="C1C2"/>
    <trip id="bike47" type="bike_bicycle" depart="356.05" departLane="best" departSpeed="max" from="A2B2" to="C1C0"/>
    <trip id="bike48" type="bike_bicycle" depart="363.62" departLane="best" departSpeed="max" from="E3D3" to="C2D2"/>
    <trip id="bike49" type="bike_bicycle" depart="371.20" departLane="best" departSpeed="max" from="E3D3" to="D2E2"/>
    <trip id="bike50" type="bike_bicycle" depart="378.77" departLane="best" departSpeed="max" from="A1B1" to="D1D2"/>
    <trip id="bike51" type="bike_bicycle" depart="386.35" departLane="best" departSpeed="max" from="D0D1" to="C2D2"/>
    <trip id="bike52" type="bike_bicycle" depart="393.92" departLane="best" from="B2C2" to="C3D3"/>
    <trip id="bike53" type="bike_bicycle" depart="401.50" departLane="best" departSpeed="max" from="A3B3" to="C1C2"/>
    <trip id="bike54" type="bike_bicycle" depart="409.07" departLane="best" from="C1D1" to="D3D4"/>
    <trip id="bike55" type="bike_bicycle" depart="416.65" departLane="best" departSpeed="max" from="E1D1" to="B3A3"/>
    <trip id="bike56" type="bike_bicycle" depart="424.23" departLane="best" from="C2C3" to="B2B1"/>
    <trip id="bike57" type="bike_bicycle" depart="431.80" departLane="best" departSpeed="max" from="E1D1" to="D2E2"/>
    <trip id="bike58" type="bike_bicycle" depart="439.38" departLane="best" from="B3C3" to="C3D3"/>
    <trip id="bike59" type="bike_bicycle" depart="446.95" departLane="best" departSpeed="max" from="C4C3" to="B2A2"/>
    <trip id="bike60" type="bike_bicycle" depart="454.53" departLane="best" from="D2D1" to="C2D2"/>
    <trip id="bike61" type="bike_bicycle" depart="462.10" departLane="best" from="D2D3" to="C2D2"/>
    <trip id="bike62" type="bike_bicycle" depart="469.68" departLane="best" departSpeed="max" from="A1B1" to="B3B4"/>
    <trip id="bike63" type="bike_bicycle" depart="477.25" departLane="best" departSpeed="max" from="A1B1" to="D3D4"/>
    <trip id="bike64" type="bike_bicycle" depart="484.83" departLane="best" departSpeed="max" from="E1D1" to="D2D3"/>
    <trip id="bike65" type="bike_bicycle" depart="492.40" departLane="best" from="B3C3" to="B1B0"/>
    <trip id="bike66" type="bike_bicycle" depart="499.98" departLane="best" departSpeed="max" from="E1D1" to="D3D4"/>
    <trip id="bike67" type="bike_bicycle" depart="507.56" departLane="best" departSpeed="max" from="A3B3" to="C2C1"/>
    <trip id="bike68" type="bike_bicycle" depart="515.13" departLane="best" departSpeed="max" from="A2B2" to="D1E1"/>
    <trip id="bike69" type="bike_bicycle" depart="522.71" departLane="best" from="D2D1" to="B2A2"/>
    <trip id="bike70" type="bike_bicycle" depart="530.28" departLane="best" from="C2B2" to="C3B3"/>
    <trip id="bike71" type="bike_bicycle" depart="537.86" departLane="best" from="B2C2" to="D2E2"/>
    <trip id="bike72" type="bike_bicycle" depart="545.43" departLane="best" from="C1C2" to="B2C2"/>
    <trip id="bike73" type="bike_bicycle" depart="553.01" departLane="best" from="C2D2" to="D1E1"/>
    <trip id="bike74" type="bike_bicycle" depart="560.58" departLane="best" from="B1C1" to="B3B4"/>
    <trip id="bike75" type="bike_bicycle" depart="568.16" departLane="best" departSpeed="max" from="E3D3" to="D1C1"/>
    <trip id="bike76" type="bike_bicycle" depart="575.74" departLane="best" from="C1D1" to="C2C3"/>
    <trip id="bike77" type="bike_bicycle" depart="583.31" departLane="best" departSpeed="max" from="A3B3" to="B2C2"/>
    <trip id="bike78" type="bike_bicycle" depart="590.89" departLane="best" departSpeed="max" from="B4B3" to="C3C4"/>
    <trip id="bike79" type="bike_bicycle" depart="598.46" departLane="best" from="B2B3" to="B2C2"/>
    <trip id="bike80" type="bike_bicycle" depart="606.04" departLane="best" departSpeed="max" from="A2B2" to="C3D3"/>
    <trip id="bike81" type="bike_bicycle" depart="613.61" departLane="best" from="B2B1" to="D3D2"/>
    <trip id="bike82" type="bike_bicycle" depart="621.19" departLane="best" departSpeed="max" from="D4D3" to="B1B0"/>
    <trip id="bike83" type="bike_bicycle" depart="628.76" departLane="best" from="B2B3" to="D1D0"/>
    <trip id="bike84" type="bike_bicycle" depart="636.34" departLane="best" from="B2B1" to="B2A2"/>
    <trip id="bike85" type="bike_bicycle" depart="643.91" departLane="best" departSpeed="max" from="E2D2" to="C3C2"/>
    <trip id="bike86" type="bike_bicycle" depart="651.49" departLane="best" from="C2B2" to="D2C2"/>
    <trip id="bike87" type="bike_bicycle" depart="659.07" departLane="best" from="D3C3" to="B2B3"/>
    <trip id="bike88" type="bike_bicycle" depart="666.64" departLane="best" departSpeed="max" from="A3B3" to="C1C2"/>
    <trip id="bike89" type="bike_bicycle" depart="674.22" departLane="best" from="C1C2" to="C2B2"/>
    <trip id="bike90" type="bike_bicycle" depart="681.79" departLane="best" from="D1D2" to="D1D0"/>
    <trip id="bike91" type="bike_bicycle" depart="689.37" departLane="best" departSpeed="max" from="E3D3" to="B1B2"/>
    <trip id="bike92" type="bike_bicycle" depart="696.94" departLane="best" from="C1B1" to="B3C3"/>
    <trip id="bike93" type="bike_bicycle" depart="704.52" departLane="best" departSpeed="max" from="D4D3" to="B3A3"/>
    <trip id="bike94" type="bike_bicycle" depart="712.09" departLane="best" from="B1C1" to="C1D1"/>
    <trip id="bike95" type="bike_bicycle" depart="719.67" departLane="best" from="C1C2" to="B3B2"/>
    <trip id="bike96" type="bike_bicycle" depart="727.24" departLane="best" from="B2B3" to="D3D4"/>
    <trip id="bike97" type="bike_bicycle" depart="734.82" departLane="best" from="C1D1" to="D2E2"/>
    <trip id="bike98" type="bike_bicycle" depart="742.40" departLane="best" from="C3B3" to="B1B0"/>
    <trip id="bike99" type="bike_bicycle" depart="749.97" departLane="best" departSpeed="max" from="E3D3" to="D2E2"/>
    <trip id="bike100" type="bike_bicycle" depart="757.55" departLane="best" departSpeed="max" from="E3D3" to="D3D4"/>
    <trip id="bike101" type="bike_bicycle" depart="765.12" departLane="best" departSpeed="max" from="D4D3" to="B2A2"/>
    <trip id="bike102" type="bike_bicycle" depart="772.70" departLane="best" from="C2C1" to="B2C2"/>
    <trip id="bike103" type="bike_bicycle" depart="780.27" departLane="best" from="C1B1" to="B1B0"/>
    <trip id="bike104" type="bike_bicycle" depart="787.85" departLane="best" departSpeed="max" from="C0C1" to="D3E3"/>
    <trip id="bike105" type="bike_bicycle" depart="795.42" departLane="best" from="B2C2" to="D2C2"/>
    <trip id="bike106" type="bike_bicycle" depart="803.00" departLane="best" from="C1D1" to="C1C2"/>
    <trip id="bike107" type="bike_bicycle" depart="810.57" departLane="best" departSpeed="max" from="E2D2" to="D3E3"/>
    <trip id="bike108" type="bike_bicycle" depart="818.15" departLane="best" from="C3B3" to="D1D2"/>
    <trip id="bike109" type="bike_bicycle" depart="825.73" departLane="best" departSpeed="max" from="B0B1" to="B3B4"/>
    <trip id="bike110" type="bike_bicycle" depart="833.30" departLane="best" departSpeed="max" from="E3D3" to="C3C2"/>
    <trip id="bike111" type="bike_bicycle" depart="840.88" departLane="best" from="C3B3" to="D1E1"/>
    <trip id="bike112" type="bike_bicycle" depart="848.45" departLane="best" departSpeed="max" from="A2B2" to="C3C4"/>
    <trip id="bike113" type="bike_bicycle" depart="856.03" departLane="best" from="C2C3" to="D2E2"/>
    <trip id="bike114" type="bike_bicycle" depart="863.60" departLane="best" departSpeed="max" from="B0B1" to="D3E3"/>
    <trip id="bike115" type="bike_bicycle" depart="871.18" departLane="best" departSpeed="max" from="A2B2" to="B2B1"/>
    <trip id="bike116" type="bike_bicycle" depart="878.75" departLane="best" from="C3D3" to="D1D0"/>
    <trip id="bike117" type="bike_bicycle" depart="886.33" departLane="best" from="B2B3" to="B1C1"/>
    <trip id="bike118" type="bike_bicycle" depart="893.90" departLane="best" departSpeed="max" from="E1D1" to="B3A3"/>
    <trip id="bike119" type="bike_bicycle" depart="901.48" departLane="best" from="C3D3" to="C3C4"/>
    <trip id="bike120" type="bike_bicycle" depart="909.06" departLane="best" from="C1C2" to="C3C4"/>
    <trip id="bike121" type="bike_bicycle" depart="916.63" departLane="best" from="C2D2" to="D3D4"/>
    <trip id="bike122" type="bike_bicycle" depart="924.21" departLane="best" from="B1C1" to="D1D2"/>
    <trip id="bike123" type="bike_bicycle" depart="931.78" departLane="best" from="B2B3" to="C1C0"/>
    <trip id="bike124" type="bike_bicycle" depart="939.36" departLane="best" departSpeed="max" from="D0D1" to="B3B4"/>
    <trip id="bike125" type="bike_bicycle" depart="946.93" departLane="best" departSpeed="max" from="B4B3" to="D1E1"/>
    <trip id="bike126" type="bike_bicycle" depart="954.51" departLane="best" departSpeed="max" from="A2B2" to="C1D1"/>
    <trip id="bike127" type="bike_bicycle" depart="962.08" departLane="best" departSpeed="max" from="E3D3" to="D3E3"/>
    <trip id="bike128" type="bike_bicycle" depart="969.66" departLane="best" departSpeed="max" from="A2B2" to="B2C2"/>
    <trip id="bike129" type="bike_bicycle" depart="977.23" departLane="best" from="B2C2" to="D3D4"/>
    <trip id="bike130" type="bike_bicycle" depart="984.81" departLane="best" departSpeed="max" from="E1D1" to="D3C3"/>
    <trip id="bike131" type="bike_bicycle" depart="992.39" departLane="best" departSpeed="max" from="C0C1" to="B2A2"/>
    <trip id="bike132" type="bike_bicycle" depart="999.96" departLane="best" departSpeed="max" from="D4D3" to="D1D0"/>
    <trip id="bike133" type="bike_bicycle" depart="1007.54" departLane="best" departSpeed="max" from="C4C3" to="D3E3"/>
    <trip id="bike134" type="bike_bicycle" depart="1015.11" departLane="best" departSpeed="max" from="D0D1" to="B1A1"/>
    <trip id="bike135" type="bike_bicycle" depart="1022.69" departLane="best" from="D3D2" to="B3B4"/>
    <trip id="bike136" type="bike_bicycle" depart="1030.26" departLane="best" departSpeed="max" from="D0D1" to="D3D4"/>
    <trip id="bike137" type="bike_bicycle" depart="1037.84" departLane="best" departSpeed="max" from="B0B1" to="B1C1"/>
    <trip id="bike138" type="bike_bicycle" depart="1045.41" departLane="best" departSpeed="max" from="A3B3" to="C3B3"/>
    <trip id="bike139" type="bike_bicycle" depart="1052.99" departLane="best" from="B3B2" to="C3C4"/>
    <trip id="bike140" type="bike_bicycle" depart="1060.56" departLane="best" from="D1D2" to="B2B3"/>
    <trip id="bike141" type="bike_bicycle" depart="1068.14" departLane="best" departSpeed="max" from="C4C3" to="B3A3"/>
    <trip id="bike142" type="bike_bicycle" depart="1075.72" departLane="best" from="C2C1" to="D3D2"/>
    <trip id="bike143" type="bike_bicycle" depart="1083.29" departLane="best" departSpeed="max" from="D4D3" to="B1B2"/>
    <trip id="bike144" type="bike_bicycle" depart="1090.87" departLane="best" from="C1C2" to="B3B2"/>
    <trip id="bike145" type="bike_bicycle" depart="1098.44" departLane="best" departSpeed="max" from="A1B1" to="D2C2"/>
    <trip id="bike146" type="bike_bicycle" depart="1106.02" departLane="best" departSpeed="max" from="C4C3" to="B3A3"/>
    <trip id="bike147" type="bike_bicycle" depart="1113.59" departLane="best" from="D2C2" to="C3B3"/>
    <trip id="bike148" type="bike_bicycle" depart="1121.17" departLane="best" from="C1C2" to="B1A1"/>
    <trip id="bike149" type="bike_bicycle" depart="1128.74" departLane="best" departSpeed="max" from="A2B2" to="D3C3"/>
    <trip id="bike150" type="bike_bicycle" depart="1136.32" departLane="best" departSpeed="max" from="E1D1" to="C3B3"/>
    <trip id="bike151" type="bike_bicycle" depart="1143.89" departLane="best" departSpeed="max" from="D4D3" to="C3C2"/>
    <trip id="bike152" type="bike_bicycle" depart="1151.47" departLane="best" departSpeed="max" from="B0B1" to="B2A2"/>
    <trip id="bike153" type="bike_bicycle" depart="1159.05" departLane="best" from="B3C3" to="D3D2"/>
    <trip id="bike154" type="bike_bicycle" depart="1166.62" departLane="best" from="D3C3" to="D2E2"/>
    <trip id="bike155" type="bike_bicycle" depart="1174.20" departLane="best" departSpeed="max" from="E1D1" to="B2C2"/>
    <trip id="bike156" type="bike_bicycle" depart="1181.77" departLane="best" from="B2B3" to="B1B2"/>
    <trip id="bike157" type="bike_bicycle" depart="1189.35" departLane="best" from="D2D3" to="D3C3"/>
    <trip id="bike158" type="bike_bicycle" depart="1196.92" departLane="best" from="C1B1" to="C3C4"/>
    <trip id="bike159" type="bike_bicycle" depart="1204.50" departLane="best" departSpeed="max" from="B0B1" to="D3D4"/>
    <trip id="bike160" type="bike_bicycle" depart="1212.07" departLane="best" departSpeed="max" from="D4D3" to="D3E3"/>
    <trip id="bike161" type="bike_bicycle" depart="1219.65" departLane="best" from="D3C3" to="D3C3"/>
    <trip id="bike162" type="bike_bicycle" depart="1227.22" departLane="best" departSpeed="max" from="A1B1" to="D1E1"/>
    <trip id="bike163" type="bike_bicycle" depart="1234.80" departLane="best" departSpeed="max" from="B4B3" to="D3D4"/>
    <trip id="bike164" type="bike_bicycle" depart="1242.38" departLane="best" from="D3C3" to="D2E2"/>
    <trip id="bike165" type="bike_bicycle" depart="1249.95" departLane="best" from="D3C3" to="B3A3"/>
    <trip id="bike166" type="bike_bicycle" depart="1257.53" departLane="best" from="D2D3" to="B1C1"/>
    <trip id="bike167" type="bike_bicycle" depart="1265.10" departLane="best" departSpeed="max" from="D4D3" to="D2E2"/>
    <trip id="bike168" type="bike_bicycle" depart="1272.68" departLane="best" from="B2B1" to="D2D3"/>
    <trip id="bike169" type="bike_bicycle" depart="1280.25" departLane="best" from="C2B2" to="B3B4"/>
    <trip id="bike170" type="bike_bicycle" depart="1287.83" departLane="best" from="D3C3" to="B2C2"/>
    <trip id="bike171" type="bike_bicycle" depart="1295.40" departLane="best" departSpeed="max" from="A1B1" to="B2B3"/>
    <trip id="bike172" type="bike_bicycle" depart="1302.98" departLane="best" departSpeed="max" from="B4B3" to="D2E2"/>
    <trip id="bike173" type="bike_bicycle" depart="1310.55" departLane="best" departSpeed="max" from="E3D3" to="B3B2"/>
    <trip id="bike174" type="bike_bicycle" depart="1318.13" departLane="best" departSpeed="max" from="C4C3" to="C1C0"/>
    <trip id="bike175" type="bike_bicycle" depart="1325.71" departLane="best" departSpeed="max" from="E3D3" to="C2D2"/>
    <trip id="bike176" type="bike_bicycle" depart="1333.28" departLane="best" departSpeed="max" from="E2D2" to="B1C1"/>
    <trip id="bike177" type="bike_bicycle" depart="1340.86" departLane="best" departSpeed="max" from="E3D3" to="B2B1"/>
    <trip id="bike178" type="bike_bicycle" depart="1348.43" departLane="best" departSpeed="max" from="E3D3" to="B3A3"/>
    <trip id="bike179" type="bike_bicycle" depart="1356.01" departLane="best" departSpeed="max" from="A3B3" to="C1C2"/>
    <trip id="bike180" type="bike_bicycle" depart="1363.58" departLane="best" from="D1D2" to="B3B4"/>
    <trip id="bike181" type="bike_bicycle" depart="1371.16" departLane="best" departSpeed="max" from="C4C3" to="C2C3"/>
    <trip id="bike182" type="bike_bicycle" depart="1378.73" departLane="best" departSpeed="max" from="C0C1" to="C3C2"/>
    <trip id="bike183" type="bike_bicycle" depart="1386.31" departLane="best" from="B2C2" to="D1D2"/>
    <trip id="bike184" type="bike_bicycle" depart="1393.88" departLane="best" departSpeed="max" from="A1B1" to="D3D4"/>
    <trip id="bike185" type="bike_bicycle" depart="1401.46" departLane="best" from="C2D2" to="D1D2"/>
    <trip id="bike186" type="bike_bicycle" depart="1409.04" departLane="best" from="D2C2" to="D1D0"/>
    <trip id="bike187" type="bike_bicycle" depart="1416.61" departLane="best" departSpeed="max" from="C0C1" to="B1B0"/>
    <trip id="bike188" type="bike_bicycle" depart="1424.19" departLane="best" departSpeed="max" from="D0D1" to="B3B4"/>
    <trip id="bike189" type="bike_bicycle" depart="1431.76" departLane="best" departSpeed="max" from="B4B3" to="D2E2"/>
    <trip id="bike190" type="bike_bicycle" depart="1439.34" departLane="best" from="D1D2" to="B3B4"/>
    <trip id="bike191" type="bike_bicycle" depart="1446.91" departLane="best" from="B3C3" to="C1C0"/>
    <trip id="bike192" type="bike_bicycle" depart="1454.49" departLane="best" from="C1B1" to="B3B4"/>
    <trip id="bike193" type="bike_bicycle" depart="1462.06" departLane="best" departSpeed="max" from="B0B1" to="C1C2"/>
    <trip id="bike194" type="bike_bicycle" depart="1469.64" departLane="best" departSpeed="max" from="E2D2" to="D1D0"/>
    <trip id="bike195" type="bike_bicycle" depart="1477.21" departLane="best" departSpeed="max" from="E1D1" to="C3C4"/>
    <trip id="bike196" type="bike_bicycle" depart="1484.79" departLane="best" from="B3C3" to="C3B3"/>
    <trip id="bike197" type="bike_bicycle" depart="1492.37" departLane="best" departSpeed="max" from="A1B1" to="B3B2"/>
    <trip id="bike198" type="bike_bicycle" depart="1499.94" departLane="best" from="C1C2" to="C3C2"/>
    <trip id="bike199" type="bike_bicycle" depart="1507.52" departLane="best" departSpeed="max" from="D0D1" to="C2B2"/>
    <trip id="bike200" type="bike_bicycle" depart="1515.09" departLane="best" from="C1D1" to="B2C2"/>
    <trip id="bike201" type="bike_bicycle" depart="1522.67" departLane="best" from="C2B2" to="D3D2"/>
    <trip id="bike202" type="bike_bicycle" depart="1530.24" departLane="best" from="D3C3" to="B2B1"/>
    <trip id="bike203" type="bike_bicycle" depart="1537.82" departLane="best" departSpeed="max" from="A3B3" to="C2C3"/>
    <trip id="bike204" type="bike_bicycle" depart="1545.39" departLane="best" departSpeed="max" from="C4C3" to="B3C3"/>
    <trip id="bike205" type="bike_bicycle" depart="1552.97" departLane="best" from="D3D2" to="D1E1"/>
    <trip id="bike206" type="bike_bicycle" depart="1560.54" departLane="best" departSpeed="max" from="D0D1" to="B2C2"/>
    <trip id="bike207" type="bike_bicycle" depart="1568.12" departLane="best" from="B1C1" to="B1A1"/>
    <trip id="bike208" type="bike_bicycle" depart="1575.70" departLane="best" from="B2B3" to="C2B2"/>
    <trip id="bike209" type="bike_bicycle" depart="1583.27" departLane="best" departSpeed="max" from="D4D3" to="B1B0"/>
    <trip id="bike210" type="bike_bicycle" depart="1590.85" departLane="best" from="C1B1" to="C3D3"/>
    <trip id="bike211" type="bike_bicycle" depart="1598.42" departLane="best" from="B1C1" to="D1D0"/>
    <trip id="bike212" type="bike_bicycle" depart="1606.00" departLane="best" from="C2C1" to="B3A3"/>
    <trip id="bike213" type="bike_bicycle" depart="1613.57" departLane="best" departSpeed="max" from="D0D1" to="B1A1"/>
    <trip id="bike214" type="bike_bicycle" depart="1621.15" departLane="best" from="D2D1" to="D1E1"/>
    <trip id="bike215" type="bike_bicycle" depart="1628.72" departLane="best" departSpeed="max" from="A3B3" to="C1C2"/>
    <trip id="bike216" type="bike_bicycle" depart="1636.30" departLane="best" from="B1B2" to="D3D4"/>
    <trip id="bike217" type="bike_bicycle" depart="1643.88" departLane="best" from="C2C3" to="B1B0"/>
    <trip id="bike218" type="bike_bicycle" depart="1651.45" departLane="best" from="B2B3" to="D2E2"/>
    <trip id="bike219" type="bike_bicycle" depart="1659.03" departLane="best" from="C1D1" to="D2D1"/>
    <trip id="bike220" type="bike_bicycle" depart="1666.60" departLane="best" departSpeed="max" from="D0D1" to="D3E3"/>
    <trip id="bike221" type="bike_bicycle" depart="1674.18" departLane="best" from="C3D3" to="D3D4"/>
    <trip id="bike222" type="bike_bicycle" depart="1681.75" departLane="best" departSpeed="max" from="E1D1" to="C3C4"/>
    <trip id="bike223" type="bike_bicycle" depart="1689.33" departLane="best" from="D1D2" to="C2C3"/>
    <trip id="bike224" type="bike_bicycle" depart="1696.90" departLane="best" from="D3D2" to="C3B3"/>
    <trip id="bike225" type="bike_bicycle" depart="1704.48" departLane="best" departSpeed="max" from="E1D1" to="D1E1"/>
    <trip id="bike226" type="bike_bicycle" depart="1712.05" departLane="best" from="C2B2" to="B3A3"/>
    <trip id="bike227" type="bike_bicycle" depart="1719.63" departLane="best" from="B2B3" to="C3D3"/>
    <trip id="bike228" type="bike_bicycle" depart="1727.21" departLane="best" from="D2D1" to="C2D2"/>
    <trip id="bike229" type="bike_bicycle" depart="1734.78" departLane="best" departSpeed="max" from="C4C3" to="B3B2"/>
    <trip id="bike230" type="bike_bicycle" depart="1742.36" departLane="best" departSpeed="max" from="A2B2" to="B3B2"/>
    <trip id="bike231" type="bike_bicycle" depart="1749.93" departLane="best" from="B3B2" to="B3B4"/>
    <trip id="bike232" type="bike_bicycle" depart="1757.51" departLane="best" from="C2D2" to="B2A2"/>
    <trip id="bike233" type="bike_bicycle" depart="1765.08" departLane="best" from="B2B3" to="D1D0"/>
    <trip id="bike234" type="bike_bicycle" depart="1772.66" departLane="best" from="D1C1" to="B1B0"/>
    <trip id="bike235" type="bike_bicycle" depart="1780.23" departLane="best" from="C1B1" to="C3B3"/>
    <trip id="bike236" type="bike_bicycle" depart="1787.81" departLane="best" from="C1B1" to="B2B3"/>
    <trip id="bike237" type="bike_bicycle" depart="1795.38" departLane="best" from="C1C2" to="D3D2"/>
    <trip id="bike238" type="bike_bicycle" depart="1802.96" departLane="best" from="C3D3" to="D1D0"/>
    <trip id="bike239" type="bike_bicycle" depart="1810.54" departLane="best" departSpeed="max" from="D4D3" to="D1E1"/>
    <trip id="bike240" type="bike_bicycle" depart="1818.11" departLane="best" departSpeed="max" from="C0C1" to="B1A1"/>
    <trip id="bike241" type="bike_bicycle" depart="1825.69" departLane="best" departSpeed="max" from="B4B3" to="D1E1"/>
    <trip id="bike242" type="bike_bicycle" depart="1833.26" departLane="best" departSpeed="max" from="D4D3" to="D3D4"/>
    <trip id="bike243" type="bike_bicycle" depart="1840.84" departLane="best" from="C1C2" to="D1E1"/>
    <trip id="bike244" type="bike_bicycle" depart="1848.41" departLane="best" from="C3B3" to="C3C4"/>
    <trip id="bike245" type="bike_bicycle" depart="1855.99" departLane="best" from="B2B1" to="B2C2"/>
    <trip id="bike246" type="bike_bicycle" depart="1863.56" departLane="best" from="C1C2" to="B1A1"/>
    <trip id="bike247" type="bike_bicycle" depart="1871.14" departLane="best" departSpeed="max" from="B4B3" to="D1D0"/>
    <trip id="bike248" type="bike_bicycle" depart="1878.71" departLane="best" from="C1B1" to="B2A2"/>
    <trip id="bike249" type="bike_bicycle" depart="1886.29" departLane="best" from="C2B2" to="B2A2"/>
    <trip id="bike250" type="bike_bicycle" depart="1893.87" departLane="best" departSpeed="max" from="C4C3" to="B1A1"/>
    <trip id="bike251" type="bike_bicycle" depart="1901.44" departLane="best" departSpeed="max" from="C0C1" to="C3C2"/>
    <trip id="bike252" type="bike_bicycle" depart="1909.02" departLane="best" departSpeed="max" from="A1B1" to="C3D3"/>
    <trip id="bike253" type="bike_bicycle" depart="1916.59" departLane="best" departSpeed="max" from="B0B1" to="C2B2"/>
    <trip id="bike254" type="bike_bicycle" depart="1924.17" departLane="best" departSpeed="max" from="A2B2" to="C1C0"/>
    <trip id="bike255" type="bike_bicycle" depart="1931.74" departLane="best" from="B2B1" to="B3B4"/>
    <trip id="bike256" type="bike_bicycle" depart="1939.32" departLane="best" from="D2D1" to="C1C0"/>
    <trip id="bike257" type="bike_bicycle" depart="1946.89" departLane="best" from="D2D1" to="D2D3"/>
    <trip id="bike258" type="bike_bicycle" depart="1954.47" departLane="best" from="B2C2" to="B1B0"/>
    <trip id="bike259" type="bike_bicycle" depart="1962.04" departLane="best" departSpeed="max" from="A1B1" to="C2D2"/>
    <trip id="bike260" type="bike_bicycle" depart="1969.62" departLane="best" departSpeed="max" from="E3D3" to="B3C3"/>
    <trip id="bike261" type="bike_bicycle" depart="1977.20" departLane="best" departSpeed="max" from="D0D1" to="D2C2"/>
    <trip id="bike262" type="bike_bicycle" depart="1984.77" departLane="best" departSpeed="max" from="D0D1" to="D1E1"/>