<?xml version="1.0" encoding="UTF-8"?>

<!-- generated on Mon Dec  9 23:24:54 2019 by Eclipse SUMO duarouter Version 1.3.1
<configuration xmlns:xsi="http://www.w3.org/2001/XMLSchema-instance" xsi:noNamespaceSchemaLocation="http://sumo.dlr.de/xsd/duarouterConfiguration.xsd">

    <input>
        <net-file value="optimal3.net.xml"/>
        <route-files value="optimal.motorcycle.trips.xml"/>
    </input>

    <output>
        <output-file value="optimal.motorcycle.trips.xml.tmp"/>
        <write-trips value="true"/>
    </output>

    <time>
        <begin value="0"/>
        <end value="3600.0"/>
    </time>

    <report>
        <no-warnings value="true"/>
        <ignore-errors value="true"/>
        <no-step-log value="true"/>
    </report>

</configuration>
-->

<routes xmlns:xsi="http://www.w3.org/2001/XMLSchema-instance" xsi:noNamespaceSchemaLocation="http://sumo.dlr.de/xsd/routes_file.xsd">
    <vType id="moto_motorcycle" vClass="motorcycle"/>
    <trip id="moto0" type="moto_motorcycle" depart="0.00" departLane="best" departSpeed="max" from="C4C3" to="B1A1"/>
    <trip id="moto1" type="moto_motorcycle" depart="13.54" departLane="best" from="B3B2" to="B2C2"/>
    <trip id="moto2" type="moto_motorcycle" depart="27.08" departLane="best" from="D2C2" to="D1D0"/>
    <trip id="moto3" type="moto_motorcycle" depart="40.62" departLane="best" departSpeed="max" from="E1D1" to="B1B2"/>
    <trip id="moto4" type="moto_motorcycle" depart="54.17" departLane="best" from="C1C2" to="B1A1"/>
    <trip id="moto5" type="moto_motorcycle" depart="67.71" departLane="best" from="B2B1" to="C2C3"/>
    <trip id="moto6" type="moto_motorcycle" depart="81.25" departLane="best" departSpeed="max" from="A1B1" to="B2B3"/>
    <trip id="moto7" type="moto_motorcycle" depart="94.79" departLane="best" departSpeed="max" from="D0D1" to="C3B3"/>
    <trip id="moto8" type="moto_motorcycle" depart="108.33" departLane="best" from="B2B1" to="C3C4"/>
    <trip id="moto9" type="moto_motorcycle" depart="121.87" departLane="best" from="D3C3" to="B1A1"/>
    <trip id="moto10" type="moto_motorcycle" depart="135.42" departLane="best" from="D3C3" to="D1D0"/>
    <trip id="moto11" type="moto_motorcycle" depart="148.96" departLane="best" departSpeed="max" from="B4B3" to="B2A2"/>
    <trip id="moto12" type="moto_motorcycle" depart="162.50" departLane="best" departSpeed="max" from="E2D2" to="B3C3"/>
    <trip id="moto13" type="moto_motorcycle" depart="176.04" departLane="best" departSpeed="max" from="A3B3" to="B1B2"/>
    <trip id="moto14" type="moto_motorcycle" depart="189.58" departLane="best" departSpeed="max" from="D4D3" to="C3C4"/>
    <trip id="moto15" type="moto_motorcycle" depart="203.12" departLane="best" from="D3C3" to="D1E1"/>
    <trip id="moto16" type="moto_motorcycle" depart="216.67" departLane="best" from="C2D2" to="D3E3"/>
    <trip id="moto17" type="moto_motorcycle" depart="230.21" departLane="best" departSpeed="max" from="C0C1" to="C3B3"/>
    <trip id="moto18" type="moto_motorcycle" depart="243.75" departLane="best" from="D3D2" to="C3C4"/>
    <trip id="moto19" type="moto_motorcycle" depart="257.29" departLane="best" departSpeed="max" from="D4D3" to="C3C2"/>
    <trip id="moto20" type="moto_motorcycle" depart="270.83" departLane="best" from="D1C1" to="B1B0"/>
    <trip id="moto21" type="moto_motorcycle" depart="284.37" departLane="best" from="B2B1" to="B3B2"/>
    <trip id="moto22" type="moto_motorcycle" depart="297.92" departLane="best" departSpeed="max" from="A2B2" to="B3A3"/>
    <trip id="moto23" type="moto_motorcycle" depart="311.46" departLane="best" departSpeed="max" from="A3B3" to="B3B2"/>
    <trip id="moto24" type="moto_motorcycle" depart="325.00" departLane="best" departSpeed="max" from="C4C3" to="C1B1"/>
    <trip id="moto25" type="moto_motorcycle" depart="338.54" departLane="best" departSpeed="max" from="C0C1" to="B2C2"/>
    <trip id="moto26" type="moto_motorcycle" depart="352.08" departLane="best" from="B2C2" to="D3D4"/>
    <trip id="moto27" type="moto_motorcycle" depart="365.62" departLane="best" departSpeed="max" from="D0D1" to="C3C4"/>
    <trip id="moto28" type="moto_motorcycle" depart="379.16" departLane="best" from="B1B2" to="D1D2"/>
    <trip id="moto29" type="moto_motorcycle" depart="392.71" departLane="best" departSpeed="max" from="B0B1" to="C1C0"/>
    <trip id="moto30" type="moto_motorcycle" depart="406.25" departLane="best" departSpeed="max" from="E3D3" to="C3D3"/>
    <trip id="moto31" type="moto_motorcycle" depart="419.79" departLane="best" from="C3B3" to="D1D0"/>
    <trip id="moto32" type="moto_motorcycle" depart="433.33" departLane="best" departSpeed="max" from="D4D3" to="D2C2"/>
    <trip id="moto33" type="moto_motorcycle" depart="446.87" departLane="best" from="B2B1" to="B1A1"/>
    <trip id="moto34" type="moto_motorcycle" depart="460.41" departLane="best" departSpeed="max" from="B4B3" to="B3A3"/>
    <trip id="moto35" type="moto_motorcycle" depart="473.96" departLane="best" from="B2B1" to="D3D4"/>
    <trip id="moto36" type="moto_motorcycle" depart="487.50" departLane="best" departSpeed="max" from="E1D1" to="B3B4"/>
    <trip id="moto37" type="moto_motorcycle" depart="501.04" departLane="best" departSpeed="max" from="D0D1" to="C1C0"/>
    <trip id="moto38" type="moto_motorcycle" depart="514.58" departLane="best" departSpeed="max" from="E1D1" to="C2B2"/>
    <trip id="moto39" type="moto_motorcycle" depart="528.12" departLane="best" from="B2C2" to="B3A3"/>
    <trip id="moto40" type="moto_motorcycle" depart="541.66" departLane="best" from="C3B3" to="B3A3"/>
    <trip id="moto41" type="moto_motorcycle" depart="555.21" departLane="best" from="C3D3" to="D3D2"/>
    <trip id="moto42" type="moto_motorcycle" depart="568.75" departLane="best" from="C1B1" to="B2C2"/>
    <trip id="moto43" type="moto_motorcycle" depart="582.29" departLane="best" departSpeed="max" from="E3D3" to="C2C3"/>
    <trip id="moto44" type="moto_motorcycle" depart="595.83" departLane="best" departSpeed="max" from="A3B3" to="B1B0"/>
    <trip id="moto45" type="moto_motorcycle" depart="609.37" departLane="best" departSpeed="max" from="A3B3" to="C3D3"/>
    <trip id="moto46" type="moto_motorcycle" depart="622.91" departLane="best" from="D3C3" to="C1C2"/>
    <trip id="moto47" type="moto_motorcycle" depart="636.46" departLane="best" departSpeed="max" from="A2B2" to="C1C0"/>
    <trip id="moto48" type="moto_motorcycle" depart="650.00" departLane="best" departSpeed="max" from="E3D3" to="C2D2"/>
    <trip id="moto49" type="moto_motorcycle" depart="663.54" departLane="best" departSpeed="max" from="E3D3" to="D2E2"/>
    <trip id="moto50" type="moto_motorcycle" depart="677.08" departLane="best" departSpeed="max" from="A1B1" to="D1D2"/>
    <trip id="moto51" type="moto_motorcycle" depart="690.62" departLane="best" departSpeed="max" from="D0D1" to="C2D2"/>
    <trip id="moto52" type="moto_motorcycle" depart="704.16" departLane="best" from="B2C2" to="C3D3"/>
    <trip id="moto53" type="moto_motorcycle" depart="717.70" departLane="best" departSpeed="max" from="A3B3" to="C1C2"/>
    <trip id="moto54" type="moto_motorcycle" depart="731.25" departLane="best" from="C1D1" to="D3D4"/>
    <trip id="moto55" type="moto_motorcycle" depart="744.79" departLane="best" departSpeed="max" from="E1D1" to="B3A3"/>
    <trip id="moto56" type="moto_motorcycle" depart="758.33" departLane="best" from="C2C3" to="B2B1"/>
    <trip id="moto57" type="moto_motorcycle" depart="771.87" departLane="best" departSpeed="max" from="E1D1" to="D2E2"/>
    <trip id="moto58" type="moto_motorcycle" depart="785.41" departLane="best" from="B3C3" to="C3D3"/>
    <trip id="moto59" type="moto_motorcycle" depart="798.95" departLane="best" departSpeed="max" from="C4C3" to="B2A2"/>
    <trip id="moto60" type="moto_motorcycle" depart="812.50" departLane="best" from="D2D1" to="C2D2"/>
    <trip id="moto61" type="moto_motorcycle" depart="826.04" departLane="best" from="D2D3" to="C2D2"/>
    <trip id="moto62" type="moto_motorcycle" depart="839.58" departLane="best" departSpeed="max" from="A1B1" to="B3B4"/>
    <trip id="moto63" type="moto_motorcycle" depart="853.12" departLane="best" departSpeed="max" from="A1B1" to="D3D4"/>
    <trip id="moto64" type="moto_motorcycle" depart="866.66" departLane="best" departSpeed="max" from="E1D1" to="D2D3"/>
    <trip id="moto65" type="moto_motorcycle" depart="880.20" departLane="best" from="B3C3" to="B1B0"/>
    <trip id="moto66" type="moto_motorcycle" depart="893.75" departLane="best" departSpeed="max" from="E1D1" to="D3D4"/>
    <trip id="moto67" type="moto_motorcycle" depart="907.29" departLane="best" departSpeed="max" from="A3B3" to="C2C1"/>
    <trip id="moto68" type="moto_motorcycle" depart="920.83" departLane="best" departSpeed="max" from="A2B2" to="D1E1"/>
    <trip id="moto69" type="moto_motorcycle" depart="934.37" departLane="best" from="D2D1" to="B2A2"/>
    <trip id="moto70" type="moto_motorcycle" depart="947.91" departLane="best" from="C2B2" to="C3B3"/>
    <trip id="moto71" type="moto_motorcycle" depart="961.45" departLane="best" from="B2C2" to="D2E2"/>
    <trip id="moto72" type="moto_motorcycle" depart="975.00" departLane="best" from="C1C2" to="B2C2"/>
    <trip id="moto73" type="moto_motorcycle" depart="988.54" departLane="best" from="C2D2" to="D1E1"/>
    <trip id="moto74" type="moto_motorcycle" depart="1002.08" departLane="best" from="B1C1" to="B3B4"/>
    <trip id="moto75" type="moto_motorcycle" depart="1015.62" departLane="best" departSpeed="max" from="E3D3" to="D1C1"/>
    <trip id="moto76" type="moto_motorcycle" depart="1029.16" departLane="best" from="C1D1" to="C2C3"/>
    <trip id="moto77" type="moto_motorcycle" depart="1042.70" departLane="best" departSpeed="max" from="A3B3" to="B2C2"/>
    <trip id="moto78" type="moto_motorcycle" depart="1056.25" departLane="best" departSpeed="max" from="B4B3" to="C3C4"/>
    <trip id="moto79" type="moto_motorcycle" depart="1069.79" departLane="best" from="B2B3" to="B2C2"/>
    <trip id="moto80" type="moto_motorcycle" depart="1083.33" departLane="best" departSpeed="max" from="A2B2" to="C3D3"/>
    <trip id="moto81" type="moto_motorcycle" depart="1096.87" departLane="best" from="B2B1" to="D3D2"/>
    <trip id="moto82" type="moto_motorcycle" depart="1110.41" departLane="best" departSpeed="max" from="D4D3" to="B1B0"/>
    <trip id="moto83" type="moto_motorcycle" depart="1123.95" departLane="best" from="B2B3" to="D1D0"/>
    <trip id="moto84" type="moto_motorcycle" depart="1137.49" departLane="best" from="B2B1" to="B2A2"/>
    <trip id="moto85" type="moto_motorcycle" depart="1151.04" departLane="best" departSpeed="max" from="E2D2" to="C3C2"/>
    <trip id="moto86" type="moto_motorcycle" depart="1164.58" departLane="best" from="C2B2" to="D2C2"/>
    <trip id="moto87" type="moto_motorcycle" depart="1178.12" departLane="best" from="D3C3" to="B2B3"/>
    <trip id="moto88" type="moto_motorcycle" depart="1191.66" departLane="best" departSpeed="max" from="A3B3" to="C1C2"/>
    <trip id="moto89" type="moto_motorcycle" depart="1205.20" departLane="best" from="C1C2" to="C2B2"/>
    <trip id="moto90" type="moto_motorcycle" depart="1218.74" departLane="best" from="D1D2" to="D1D0"/>
    <trip id="moto91" type="moto_motorcycle" depart="1232.29" departLane="best" departSpeed="max" from="E3D3" to="B1B2"/>
    <trip id="moto92" type="moto_motorcycle" depart="1245.83" departLane="best" from="C1B1" to="B3C3"/>
    <trip id="moto93" type="moto_motorcycle" depart="1259.37" departLane="best" departSpeed="max" from="D4D3" to="B3A3"/>
    <trip id="moto94" type="moto_motorcycle" depart="1272.91" departLane="best" from="B1C1" to="C1D1"/>
    <trip id="moto95" type="moto_motorcycle" depart="1286.45" departLane="best" from="C1C2" to="B3B2"/>
    <trip id="moto96" type="moto_motorcycle" depart="1299.99" departLane="best" from="B2B3" to="D3D4"/>
    <trip id="moto97" type="moto_motorcycle" depart="1313.54" departLane="best" from="C1D1" to="D2E2"/>
    <trip id="moto98" type="moto_motorcycle" depart="1327.08" departLane="best" from="C3B3" to="B1B0"/>
    <trip id="moto99" type="moto_motorcycle" depart="1340.62" departLane="best" departSpeed="max" from="E3D3" to="D2E2"/>
    <trip id="moto100" type="moto_motorcycle" depart="1354.16" departLane="best" departSpeed="max" from="E3D3" to="D3D4"/>
    <trip id="moto101" type="moto_motorcycle" depart="1367.70" departLane="best" departSpeed="max" from="D4D3" to="B2A2"/>
    <trip id="moto102" type="moto_motorcycle" depart="1381.24" departLane="best" from="C2C1" to="B2C2"/>
    <trip id="moto103" type="moto_motorcycle" depart="1394.79" departLane="best" from="C1B1" to="B1B0"/>
    <trip id="moto104" type="moto_motorcycle" depart="1408.33" departLane="best" departSpeed="max" from="C0C1" to="D3E3"/>
    <trip id="moto105" type="moto_motorcycle" depart="1421.87" departLane="best" from="B2C2" to="D2C2"/>
    <trip id="moto106" type="moto_motorcycle" depart="1435.41" departLane="best" from="C1D1" to="C1C2"/>
    <trip id="moto107" type="moto_motorcycle" depart="1448.95" departLane="best" departSpeed="max" from="E2D2" to="D3E3"/>
    <trip id="moto108" type="moto_motorcycle" depart="1462.49" departLane="best" from="C3B3" to="D1D2"/>
    <trip id="moto109" type="moto_motorcycle" depart="1476.03" departLane="best" departSpeed="max" from="B0B1" to="B3B4"/>
    <trip id="moto110" type="moto_motorcycle" depart="1489.58" departLane="best" departSpeed="max" from="E3D3" to="C3C2"/>
    <trip id="moto111" type="moto_motorcycle" depart="1503.12" departLane="best" from="C3B3" to="D1E1"/>
    <trip id="moto112" type="moto_motorcycle" depart="1516.66" departLane="best" departSpeed="max" from="A2B2" to="C3C4"/>
    <trip id="moto113" type="moto_motorcycle" depart="1530.20" departLane="best" from="C2C3" to="D2E2"/>
    <trip id="moto114" type="moto_motorcycle" depart="1543.74" departLane="best" departSpeed="max" from="B0B1" to="D3E3"/>
    <trip id="moto115" type="moto_motorcycle" depart="1557.28" departLane="best" departSpeed="max" from="A2B2" to="B2B1"/>
    <trip id="moto116" type="moto_motorcycle" depart="1570.83" departLane="best" from="C3D3" to="D1D0"/>
    <trip id="moto117" type="moto_motorcycle" depart="1584.37" departLane="best" from="B2B3" to="B1C1"/>
    <trip id="moto118" type="moto_motorcycle" depart="1597.91" departLane="best" departSpeed="max" from="E1D1" to="B3A3"/>
    <trip id="moto119" type="moto_motorcycle" depart="1611.45" departLane="best" from="C3D3" to="C3C4"/>
    <trip id="moto120" type="moto_motorcycle" depart="1624.99" departLane="best" from="C1C2" to="C3C4"/>
    <trip id="moto121" type="moto_motorcycle" depart="1638.53" departLane="best" from="C2D2" to="D3D4"/>
    <trip id="moto122" type="moto_motorcycle" depart="1652.08" departLane="best" from="B1C1" to="D1D2"/>
    <trip id="moto123" type="moto_motorcycle" depart="1665.62" departLane="best" from="B2B3" to="C1C0"/>
    <trip id="moto124" type="moto_motorcycle" depart="1679.16" departLane="best" departSpeed="max" from="D0D1" to="B3B4"/>
    <trip id="moto125" type="moto_motorcycle" depart="1692.70" departLane="best" departSpeed="max" from="B4B3" to="D1E1"/>
    <trip id="moto126" type="moto_motorcycle" depart="1706.24" departLane="best" departSpeed="max" from="A2B2" to="C1D1"/>
    <trip id="moto127" type="moto_motorcycle" depart="1719.78" departLane="best" departSpeed="max" from="E3D3" to="D3E3"/>
    <trip id="moto128" type="moto_motorcycle" depart="1733.33" departLane="best" departSpeed="max" from="A2B2" to="B2C2"/>
    <trip id="moto129" type="moto_motorcycle" depart="1746.87" departLane="best" from="B2C2" to="D3D4"/>
    <trip id="moto130" type="moto_motorcycle" depart="1760.41" departLane="best" departSpeed="max" from="E1D1" to="D3C3"/>
    <trip id="moto131" type="moto_motorcycle" depart="1773.95" departLane="best" departSpeed="max" from="C0C1" to="B2A2"/>
    <trip id="moto132" type="moto_motorcycle" depart="1787.49" departLane="best" departSpeed="max" from="D4D3" to="D1D0"/>
    <trip id="moto133" type="moto_motorcycle" depart="1801.03" departLane="best" departSpeed="max" from="C4C3" to="D3E3"/>
    <trip id="moto134" type="moto_motorcycle" depart="1814.57" departLane="best" departSpeed="max" from="D0D1" to="B1A1"/>
    <trip id="moto135" type="moto_motorcycle" depart="1828.12" departLane="best" from="D3D2" to="B3B4"/>
    <trip id="moto136" type="moto_motorcycle" depart="1841.66" departLane="best" departSpeed="max" from="D0D1" to="D3D4"/>
    <trip id="moto137" type="moto_motorcycle" depart="1855.20" departLane="best" departSpeed="max" from="B0B1" to="B1C1"/>
    <trip id="moto138" type="moto_motorcycle" depart="1868.74" departLane="best" departSpeed="max" from="A3B3" to="C3B3"/>
    <trip id="moto139" type="moto_motorcycle" depart="1882.28" departLane="best" from="B3B2" to="C3C4"/>
    <trip id="moto140" type="moto_motorcycle" depart="1895.82" departLane="best" from="D1D2" to="B2B3"/>
    <trip id="moto141" type="moto_motorcycle" depart="1909.37" departLane="best" departSpeed="max" from="C4C3" to="B3A3"/>
    <trip id="moto142" type="moto_motorcycle" depart="1922.91" departLane="best" from="C2C1" to="D3D2"/>
    <trip id="moto143" type="moto_motorcycle" depart="1936.45" departLane="best" departSpeed="max" from="D4D3" to="B1B2"/>
    <trip id="moto144" type="moto_motorcycle" depart="1949.99" departLane="best" from="C1C2" to="B3B2"/>
    <trip id="moto145" type="moto_motorcycle" depart="1963.53" departLane="best" departSpeed="max" from="A1B1" to="D2C2"/>
    <trip id="moto146" type="moto_motorcycle" depart="1977.07" departLane="best" departSpeed="max" from="C4C3" to="B3A3"/>
    <trip id="moto147" type="moto_motorcycle" depart="1990.62" departLane="best" from="D2C2" to="C3B3"/>
    <trip id="moto148" type="moto_motorcycle" depart="2004.16" departLane="best" from="C1C2" to="B1A1"/>
    <trip id="moto149" type="moto_motorcycle" depart="2017.70" departLane="best" departSpeed="max" from="A2B2" to="D3C3"/>
    <trip id="moto150" type="moto_motorcycle" depart="2031.24" departLane="best" departSpeed="max" from="E1D1" to="C3B3"/>
    <trip id="moto151" type="moto_motorcycle" depart="2044.78" departLane="best" departSpeed="max" from="D4D3" to="C3C2"/>
    <trip id="moto152" type="moto_motorcycle" depart="2058.32" departLane="best" departSpeed="max" from="B0B1" to="B2A2"/>
    <trip id="moto153" type="moto_motorcycle" depart="2071.87" departLane="best" from="B3C3" to="D3D2"/>
    <trip id="moto154" type="moto_motorcycle" depart="2085.41" departLane="best" from="D3C3" to="D2E2"/>
    <trip id="moto155" type="moto_motorcycle" depart="2098.95" departLane="best" departSpeed="max" from="E1D1" to="B2C2"/>
    <trip id="moto156" type="moto_motorcycle" depart="2112.49" departLane="best" from="B2B3" to="B1B2"/>
    <trip id="moto157" type="moto_motorcycle" depart="2126.03" departLane="best" from="D2D3" to="D3C3"/>
    <trip id="moto158" type="moto_motorcycle" depart="2139.57" departLane="best" from="C1B1" to="C3C4"/>
    <trip id="moto159" type="moto_motorcycle" depart="2153.11" departLane="best" departSpeed="max" from="B0B1" to="D3D4"/>
    <trip id="moto160" type="moto_motorcycle" depart="2166.66" departLane="best" departSpeed="max" from="D4D3" to="D3E3"/>
    <trip id="moto161" type="moto_motorcycle" depart="2180.20" departLane="best" from="D3C3" to="D3C3"/>
    <trip id="moto162" type="moto_motorcycle" depart="2193.74" departLane="best" departSpeed="max" from="A1B1" to="D1E1"/>
    <trip id="moto163" type="moto_motorcycle" depart="2207.28" departLane="best" departSpeed="max" from="B4B3" to="D3D4"/>
    <trip id="moto164" type="moto_motorcycle" depart="2220.82" departLane="best" from="D3C3" to="D2E2"/>
    <trip id="moto165" type="moto_motorcycle" depart="2234.36" departLane="best" from="D3C3" to="B3A3"/>
    <trip id="moto166" type="moto_motorcycle" depart="2247.91" departLane="best" from="D2D3" to="B1C1"/>
    <trip id="moto167" type="moto_motorcycle" depart="2261.45" departLane="best" departSpeed="max" from="D4D3" to="D2E2"/>
    <trip id="moto168" type="moto_motorcycle" depart="2274.99" departLane="best" from="B2B1" to="D2D3"/>
    <trip id="moto169" type="moto_motorcycle" depart="2288.53" departLane="best" from="C2B2" to="B3B4"/>
    <trip id="moto170" type="moto_motorcycle" depart="2302.07" departLane="best" from="D3C3" to="B2C2"/>
    <trip id="moto171" type="moto_motorcycle" depart="2315.61" departLane="best" departSpeed="max" from="A1B1" to="B2B3"/>
    <trip id="moto172" type="moto_motorcycle" depart="2329.16" departLane="best" departSpeed="max" from="B4B3" to="D2E2"/>
    <trip id="moto173" type="moto_motorcycle" depart="2342.70" departLane="best" departSpeed="max" from="E3D3" to="B3B2"/>
    <trip id="moto174" type="moto_motorcycle" depart="2356.24" departLane="best" departSpeed="max" from="C4C3" to="C1C0"/>
    <trip id="moto175" type="moto_motorcycle" depart="2369.78" departLane="best" departSpeed="max" from="E3D3" to="C2D2"/>
    <trip id="moto176" type="moto_motorcycle" depart="2383.32" departLane="best" departSpeed="max" from="E2D2" to="B1C1"/>
    <trip id="moto177" type="moto_motorcycle" depart="2396.86" departLane="best" departSpeed="max" from="E3D3" to="B2B1"/>
    <trip id="moto178" type="moto_motorcycle" depart="2410.41" departLane="best" departSpeed="max" from="E3D3" to="B3A3"/>
    <trip id="moto179" type="moto_motorcycle" depart="2423.95" departLane="best" departSpeed="max" from="A3B3" to="C1C2"/>
    <trip id="moto180" type="moto_motorcycle" depart="2437.49" departLane="best" from="D1D2" to="B3B4"/>
    <trip id="moto181" type="moto_motorcycle" depart="2451.03" departLane="best" departSpeed="max" from="C4C3" to="C2C3"/>
    <trip id="moto182" type="moto_motorcycle" depart="2464.57" departLane="best" departSpeed="max" from="C0C1" to="C3C2"/>
    <trip id="moto183" type="moto_motorcycle" depart="2478.11" departLane="best" from="B2C2" to="D1D2"/>
    <trip id="moto184" type="moto_motorcycle" depart="2491.65" departLane="best" departSpeed="max" from="A1B1" to="D3D4"/>
    <trip id="moto185" type="moto_motorcycle" depart="2505.20" departLane="best" from="C2D2" to="D1D2"/>
    <trip id="moto186" type="moto_motorcycle" depart="2518.74" departLane="best" from="D2C2" to="D1D0"/>
    <trip id="moto187" type="moto_motorcycle" depart="2532.28" departLane="best" departSpeed="max" from="C0C1" to="B1B0"/>
    <trip id="moto188" type="moto_motorcycle" depart="2545.82" departLane="best" departSpeed="max" from="D0D1" to="B3B4"/>
    <trip id="moto189" type="moto_motorcycle" depart="2559.36" departLane="best" departSpeed="max" from="B4B3" to="D2E2"/>
    <trip id="moto190" type="moto_motorcycle" depart="2572.90" departLane="best" from="D1D2" to="B3B4"/>
    <trip id="moto191" type="moto_motorcycle" depart="2586.45" departLane="best" from="B3C3" to="C1C0"/>
    <trip id="moto192" type="moto_motorcycle" depart="2599.99" departLane="best" from="C1B1" to="B3B4"/>
    <trip id="moto193" type="moto_motorcycle" depart="2613.53" departLane="best" departSpeed="max" from="B0B1" to="C1C2"/>
    <trip id="moto194" type="moto_motorcycle" depart="2627.07" departLane="best" departSpeed="max" from="E2D2" to="D1D0"/>
    <trip id="moto195" type="moto_motorcycle" depart="2640.61" departLane="best" departSpeed="max" from="E1D1" to="C3C4"/>
    <trip id="moto196" type="moto_motorcycle" depart="2654.15" departLane="best" from="B3C3" to="C3B3"/>
    <trip id="moto197" type="moto_motorcycle" depart="2667.70" departLane="best" departSpeed="max" from="A1B1" to="B3B2"/>
    <trip id="moto198" type="moto_motorcycle" depart="2681.24" departLane="best" from="C1C2" to="C3C2"/>
    <trip id="moto199" type="moto_motorcycle" depart="2694.78" departLane="best" departSpeed="max" from="D0D1" to="C2B2"/>
    <trip id="moto200" type="moto_motorcycle" depart="2708.32" departLane="best" from="C1D1" to="B2C2"/>
    <trip id="moto201" type="moto_motorcycle" depart="2721.86" departLane="best" from="C2B2" to="D3D2"/>
    <trip id="moto202" type="moto_motorcycle" depart="2735.40" departLane="best" from="D3C3" to="B2B1"/>
    <trip id="moto203" type="moto_motorcycle" depart="2748.95" departLane="best" departSpeed="max" from="A3B3" to="C2C3"/>
    <trip id="moto204" type="moto_motorcycle" depart="2762.49" departLane="best" departSpeed="max" from="C4C3" to="B3C3"/>
    <trip id="moto205" type="moto_motorcycle" depart="2776.03" departLane="best" from="D3D2" to="D1E1"/>
    <trip id="moto206" type="moto_motorcycle" depart="2789.57" departLane="best" departSpeed="max" from="D0D1" to="B2C2"/>
    <trip id="moto207" type="moto_motorcycle" depart="2803.11" departLane="best" from="B1C1" to="B1A1"/>
    <trip id="moto208" type="moto_motorcycle" depart="2816.65" departLane="best" from="B2B3" to="C2B2"/>
    <trip id="moto209" type="moto_motorcycle" depart="2830.20" departLane="best" departSpeed="max" from="D4D3" to="B1B0"/>
    <trip id="moto210" type="moto_motorcycle" depart="2843.74" departLane="best" from="C1B1" to="C3D3"/>
    <trip id="moto211" type="moto_motorcycle" depart="2857.28" departLane="best" from="B1C1" to="D1D0"/>
    <trip id="moto212" type="moto_motorcycle" depart="2870.82" departLane="best" from="C2C1" to="B3A3"/>
    <trip id="moto213" type="moto_motorcycle" depart="2884.36" departLane="best" departSpeed="max" from="D0D1" to="B1A1"/>
    <trip id="moto214" type="moto_motorcycle" depart="2897.90" departLane="best" from="D2D1" to="D1E1"/>
    <trip id="moto215" type="moto_motorcycle" depart="2911.44" departLane="best" departSpeed="max" from="A3B3" to="C1C2"/>
    <trip id="moto216" type="moto_motorcycle" depart="2924.99" departLane="best" from="B1B2" to="D3D4"/>
    <trip id="moto217" type="moto_motorcycle" depart="2938.53" departLane="best" from="C2C3" to="B1B0"/>
    <trip id="moto218" type="moto_motorcycle" depart="2952.07" departLane="best" from="B2B3" to="D2E2"/>
    <trip id="moto219" type="moto_motorcycle" depart="2965.61" departLane="best" from="C1D1" to="D2D1"/>
    <trip id="moto220" type="moto_motorcycle" depart="2979.15" departLane="best" departSpeed="max" from="D0D1" to="D3E3"/>
    <trip id="moto221" type="moto_motorcycle" depart="2992.69" departLane="best" from="C3D3" to="D3D4"/>
    <trip id="moto222" type="moto_motorcycle" depart="3006.24" departLane="best" departSpeed="max" from="E1D1" to="C3C4"/>
    <trip id="moto223" type="moto_motorcycle" depart="3019.78" departLane="best" from="D1D2" to="C2C3"/>
    <trip id="moto224" type="moto_motorcycle" depart="3033.32" departLane="best" from="D3D2" to="C3B3"/>
    <trip id="moto225" type="moto_motorcycle" depart="3046.86" departLane="best" departSpeed="max" from="E1D1" to="D1E1"/>
    <trip id="moto226" type="moto_motorcycle" depart="3060.40" departLane="best" from="C2B2" to="B3A3"/>
    <trip id="moto227" type="moto_motorcycle" depart="3073.94" departLane="best" from="B2B3" to="C3D3"/>
    <trip id="moto228" type="moto_motorcycle" depart="3087.49" departLane="best" from="D2D1" to="C2D2"/>
    <trip id="moto229" type="moto_motorcycle" depart="3101.03" departLane="best" departSpeed="max" from="C4C3" to="B3B2"/>
    <trip id="moto230" type="moto_motorcycle" depart="3114.57" departLane="best" departSpeed="max" from="A2B2" to="B3B2"/>
    <trip id="moto231" type="moto_motorcycle" depart="3128.11" departLane="best" from="B3B2" to="B3B4"/>
    <trip id="moto232" type="moto_motorcycle" depart="3141.65" departLane="best" from="C2D2" to="B2A2"/>
    <trip id="moto233" type="moto_motorcycle" depart="3155.19" departLane="best" from="B2B3" to="D1D0"/>
    <trip id="moto234" type="moto_motorcycle" depart="3168.74" departLane="best" from="D1C1" to="B1B0"/>
    <trip id="moto235" type="moto_motorcycle" depart="3182.28" departLane="best" from="C1B1" to="C3B3"/>
    <trip id="moto236" type="moto_motorcycle" depart="3195.82" departLane="best" from="C1B1" to="B2B3"/>
    <trip id="moto237" type="moto_motorcycle" depart="3209.36" departLane="best" from="C1C2" to="D3D2"/>
    <trip id="moto238" type="moto_motorcycle" depart="3222.90" departLane="best" from="C3D3" to="D1D0"/>
    <trip id="moto239" type="moto_motorcycle" depart="3236.44" departLane="best" departSpeed="max" from="D4D3" to="D1E1"/>
    <trip id="moto240" type="moto_motorcycle" depart="3249.98" departLane="best" departSpeed="max" from="C0C1" to="B1A1"/>
    <trip id="moto241" type="moto_motorcycle" depart="3263.53" departLane="best" departSpeed="max" from="B4B3" to="D1E1"/>
    <trip id="moto242" type="moto_motorcycle" depart="3277.07" departLane="best" departSpeed="max" from="D4D3" to="D3D4"/>
    <trip id="moto243" type="moto_motorcycle" depart="3290.61" departLane="best" from="C1C2" to="D1E1"/>
    <trip id="moto244" type="moto_motorcycle" depart="3304.15" departLane="best" from="C3B3" to="C3C4"/>
    <trip id="moto245" type="moto_motorcycle" depart="3317.69" departLane="best" from="B2B1" to="B2C2"/>
    <trip id="moto246" type="moto_motorcycle" depart="3331.23" departLane="best" from="C1C2" to="B1A1"/>
    <trip id="moto247" type="moto_motorcycle" depart="3344.78" departLane="best" departSpeed="max" from="B4B3" to="D1D0"/>
    <trip id="moto248" type="moto_motorcycle" depart="3358.32" departLane="best" from="C1B1" to="B2A2"/>
    <trip id="moto249" type="moto_motorcycle" depart="3371.86" departLane="best" from="C2B2" to="B2A2"/>
    <trip id="moto250" type="moto_motorcycle" depart="3385.40" departLane="best" departSpeed="max" from="C4C3" to="B1A1"/>
    <trip id="moto251" type="moto_motorcycle" depart="3398.94" departLane="best" departSpeed="max" from="C0C1" to="C3C2"/>
    <trip id="moto252" type="moto_motorcycle" depart="3412.48" departLane="best" departSpeed="max" from="A1B1" to="C3D3"/>
    <trip id="moto253" type="moto_motorcycle" depart="3426.03" departLane="best" departSpeed="max" from="B0B1" to="C2B2"/>
    <trip id="moto254" type="moto_motorcycle" depart="3439.57" departLane="best" departSpeed="max" from="A2B2" to="C1C0"/>
    <trip id="moto255" type="moto_motorcycle" depart="3453.11" departLane="best" from="B2B1" to="B3B4"/>