<?xml version="1.0" encoding="UTF-8"?>

<!-- generated on 05/27/20 20:29:13 by Eclipse SUMO duarouter Version 1.6.0
<configuration xmlns:xsi="http://www.w3.org/2001/XMLSchema-instance" xsi:noNamespaceSchemaLocation="http://sumo.dlr.de/xsd/duarouterConfiguration.xsd">

    <input>
        <net-file value="optimal.net.xml"/>
        <route-files value="optimal.passenger.trips.xml"/>
    </input>

    <output>
        <output-file value="optimal.passenger.rou.xml"/>
        <alternatives-output value="optimal.passenger.rou.alt.xml"/>
    </output>

    <time>
        <begin value="0"/>
        <end value="1800.0"/>
    </time>

    <report>
        <no-warnings value="true"/>
        <ignore-errors value="true"/>
        <no-step-log value="true"/>
    </report>

</configuration>
-->

<routes xmlns:xsi="http://www.w3.org/2001/XMLSchema-instance" xsi:noNamespaceSchemaLocation="http://sumo.dlr.de/xsd/routes_file.xsd">
    <vType id="veh_passenger" vClass="passenger"/>
    <vehicle id="veh0" type="veh_passenger" depart="0.00" departLane="best" departSpeed="max">
        <route edges="D0D1 D1C1 C1B1 B1A1"/>
    </vehicle>
    <vehicle id="veh1" type="veh_passenger" depart="3.40" departLane="best" departSpeed="max">
        <route edges="E2D2 D2C2 C2B2 B2B1 B1B0"/>
    </vehicle>
    <vehicle id="veh2" type="veh_passenger" depart="6.80" departLane="best" departSpeed="max">
        <route edges="B0B1 B1B2 B2C2 C2C3"/>
    </vehicle>
    <vehicle id="veh3" type="veh_passenger" depart="10.20" departLane="best" departSpeed="max">
        <route edges="B0B1 B1B2 B2C2 C2C3 C3C4"/>
    </vehicle>
    <vehicle id="veh4" type="veh_passenger" depart="13.60" departLane="best" departSpeed="max">
        <route edges="D4D3 D3D2 D2D1 D1C1 C1B1 B1A1"/>
    </vehicle>
    <vehicle id="veh5" type="veh_passenger" depart="17.00" departLane="best" departSpeed="max">
        <route edges="E3D3 D3C3 C3B3 B3B4"/>
    </vehicle>
    <vehicle id="veh6" type="veh_passenger" depart="20.40" departLane="best" departSpeed="max">
        <route edges="E1D1 D1C1 C1C2 C2C3 C3C4"/>
    </vehicle>
    <vehicle id="veh7" type="veh_passenger" depart="23.80" departLane="best" departSpeed="max">
        <route edges="D4D3 D3D2 D2D1 D1E1"/>
    </vehicle>
    <vehicle id="veh8" type="veh_passenger" depart="27.20" departLane="best" departSpeed="max">
        <route edges="E1D1 D1C1 C1C2 C2C3 C3C4"/>
    </vehicle>
    <vehicle id="veh9" type="veh_passenger" depart="30.60" departLane="best">
        <route edges="D2C2 C2C1 C1B1 B1A1"/>
    </vehicle>
    <vehicle id="veh10" type="veh_passenger" depart="34.00" departLane="best" departSpeed="max">
        <route edges="B0B1 B1B2 B2B3 B3A3"/>
    </vehicle>
    <vehicle id="veh11" type="veh_passenger" depart="37.40" departLane="best" departSpeed="max">
        <route edges="D0D1 D1C1 C1B1 B1B2 B2B3 B3B4"/>
    </vehicle>
    <vehicle id="veh12" type="veh_passenger" depart="40.80" departLane="best" departSpeed="max">
        <route edges="B4B3 B3B2 B2B1"/>
    </vehicle>
    <vehicle id="veh13" type="veh_passenger" depart="44.20" departLane="best" departSpeed="max">
        <route edges="D0D1 D1C1 C1C2 C2C3 C3D3"/>
    </vehicle>
    <vehicle id="veh14" type="veh_passenger" depart="47.60" departLane="best" departSpeed="max">
        <route edges="A3B3 B3C3 C3C2 C2C1 C1D1 D1E1"/>
    </vehicle>
    <vehicle id="veh15" type="veh_passenger" depart="51.00" departLane="best" departSpeed="max">
        <route edges="E3D3 D3D2 D2D1 D1D0"/>
    </vehicle>
    <vehicle id="veh16" type="veh_passenger" depart="54.40" departLane="best">
        <route edges="C3D3 D3D2 D2D1 D1D0"/>
    </vehicle>
    <vehicle id="veh17" type="veh_passenger" depart="57.80" departLane="best" departSpeed="max">
        <route edges="B0B1 B1B2 B2B3 B3C3 C3D3 D3E3"/>
    </vehicle>
    <vehicle id="veh18" type="veh_passenger" depart="61.20" departLane="best" departSpeed="max">
        <route edges="E1D1 D1C1 C1B1 B1B2 B2B3 B3B4"/>
    </vehicle>
    <vehicle id="veh19" type="veh_passenger" depart="64.60" departLane="best" departSpeed="max">
        <route edges="C0C1 C1B1 B1B2 B2B3"/>
    </vehicle>
    <vehicle id="veh20" type="veh_passenger" depart="68.00" departLane="best" departSpeed="max">
        <route edges="D4D3 D3D2 D2C2 C2C1 C1C0"/>
    </vehicle>
    <vehicle id="veh21" type="veh_passenger" depart="71.40" departLane="best" departSpeed="max">
        <route edges="E3D3 D3C3 C3B3"/>
    </vehicle>
    <vehicle id="veh22" type="veh_passenger" depart="74.80" departLane="best" departSpeed="max">
        <route edges="A1B1 B1C1 C1D1 D1E1"/>
    </vehicle>
    <vehicle id="veh23" type="veh_passenger" depart="78.20" departLane="best" departSpeed="max">
        <route edges="E1D1 D1C1 C1C2 C2C3 C3B3 B3A3"/>
    </vehicle>
    <vehicle id="veh24" type="veh_passenger" depart="81.60" departLane="best">
        <route edges="B3B2 B2C2 C2D2 D2D1 D1D0"/>
    </vehicle>
    <vehicle id="veh25" type="veh_passenger" depart="85.00" departLane="best" departSpeed="max">
        <route edges="A1B1 B1B2 B2B3 B3B4"/>
    </vehicle>
    <vehicle id="veh26" type="veh_passenger" depart="88.40" departLane="best" departSpeed="max">
        <route edges="A1B1 B1C1 C1D1 D1D2 D2D3 D3D4"/>
    </vehicle>
    <vehicle id="veh27" type="veh_passenger" depart="91.80" departLane="best" departSpeed="max">
        <route edges="A2B2 B2C2 C2C1 C1D1 D1E1"/>
    </vehicle>
    <vehicle id="veh28" type="veh_passenger" depart="95.20" departLane="best">
        <route edges="C1D1 D1D2 D2C2 C2C3 C3C4"/>
    </vehicle>
    <vehicle id="veh29" type="veh_passenger" depart="98.60" departLane="best" departSpeed="max">
        <route edges="B0B1 B1B2 B2B3 B3B4"/>
    </vehicle>
    <vehicle id="veh30" type="veh_passenger" depart="102.00" departLane="best" departSpeed="max">
        <route edges="E3D3 D3D2 D2D1 D1D0"/>
    </vehicle>
    <vehicle id="veh31" type="veh_passenger" depart="105.40" departLane="best" departSpeed="max">
        <route edges="B0B1 B1B2 B2B3"/>
    </vehicle>
    <vehicle id="veh32" type="veh_passenger" depart="108.80" departLane="best" departSpeed="max">
        <route edges="A2B2 B2C2 C2D2 D2D1 D1D0"/>
    </vehicle>
    <vehicle id="veh33" type="veh_passenger" depart="112.20" departLane="best" departSpeed="max">
        <route edges="B0B1 B1B2 B2C2 C2D2 D2D3 D3D4"/>
    </vehicle>
    <vehicle id="veh34" type="veh_passenger" depart="115.60" departLane="best" departSpeed="max">
        <route edges="E1D1 D1C1 C1B1 B1B0"/>
    </vehicle>
    <vehicle id="veh35" type="veh_passenger" depart="119.00" departLane="best" departSpeed="max">
        <route edges="D4D3 D3D2 D2C2 C2B2 B2A2"/>
    </vehicle>
    <vehicle id="veh36" type="veh_passenger" depart="122.40" departLane="best" departSpeed="max">
        <route edges="E3D3 D3C3 C3B3 B3B2 B2B1 B1B0"/>
    </vehicle>
    <vehicle id="veh37" type="veh_passenger" depart="125.80" departLane="best" departSpeed="max">
        <route edges="C0C1 C1B1 B1B2 B2B3 B3B4"/>
    </vehicle>
    <vehicle id="veh38" type="veh_passenger" depart="129.20" departLane="best" departSpeed="max">
        <route edges="E1D1 D1C1 C1C2 C2C3 C3B3 B3A3"/>
    </vehicle>
    <vehicle id="veh39" type="veh_passenger" depart="132.60" departLane="best" departSpeed="max">
        <route edges="C0C1 C1C2 C2C3 C3B3 B3A3"/>
    </vehicle>
    <vehicle id="veh40" type="veh_passenger" depart="136.00" departLane="best">
        <route edges="B1B2 B2B3 B3C3 C3D3 D3D4"/>
    </vehicle>
    <vehicle id="veh41" type="veh_passenger" depart="139.40" departLane="best" departSpeed="max">
        <route edges="E1D1 D1C1 C1C2 C2B2 B2A2"/>
    </vehicle>
    <vehicle id="veh42" type="veh_passenger" depart="142.80" departLane="best" departSpeed="max">
        <route edges="B4B3 B3C3 C3D3 D3E3"/>
    </vehicle>
    <vehicle id="veh43" type="veh_passenger" depart="146.20" departLane="best" departSpeed="max">
        <route edges="A1B1 B1C1 C1C2 C2C3 C3C4"/>
    </vehicle>
    <vehicle id="veh44" type="veh_passenger" depart="149.60" departLane="best" departSpeed="max">
        <route edges="A3B3 B3C3 C3D3 D3E3"/>
    </vehicle>
    <vehicle id="veh45" type="veh_passenger" depart="153.00" departLane="best" departSpeed="max">
        <route edges="C4C3 C3D3 D3D2 D2D1 D1D0"/>
    </vehicle>
    <vehicle id="veh46" type="veh_passenger" depart="156.40" departLane="best" departSpeed="max">
        <route edges="E2D2 D2C2 C2C3 C3B3 B3A3"/>
    </vehicle>
    <vehicle id="veh47" type="veh_passenger" depart="159.80" departLane="best" departSpeed="max">
        <route edges="C4C3 C3D3 D3D2 D2D1 D1C1"/>
    </vehicle>
    <vehicle id="veh48" type="veh_passenger" depart="163.20" departLane="best" departSpeed="max">
        <route edges="C0C1 C1C2 C2C3 C3C4"/>
    </vehicle>
    <vehicle id="veh49" type="veh_passenger" depart="166.60" departLane="best" departSpeed="max">
        <route edges="B0B1 B1C1 C1D1 D1E1"/>
    </vehicle>
    <vehicle id="veh50" type="veh_passenger" depart="170.00" departLane="best">
        <route edges="B3C3 C3D3 D3D2 D2D1 D1E1"/>
    </vehicle>
    <vehicle id="veh51" type="veh_passenger" depart="173.40" departLane="best" departSpeed="max">
        <route edges="D0D1 D1C1 C1B1 B1A1"/>
    </vehicle>
    <vehicle id="veh52" type="veh_passenger" depart="176.80" departLane="best" departSpeed="max">
        <route edges="D0D1 D1D2 D2D3 D3D4"/>
    </vehicle>
    <vehicle id="veh53" type="veh_passenger" depart="180.20" departLane="best" departSpeed="max">
        <route edges="A3B3 B3B2 B2B1 B1B0"/>
    </vehicle>
    <vehicle id="veh54" type="veh_passenger" depart="183.60" departLane="best" departSpeed="max">
        <route edges="D0D1 D1D2 D2D3 D3C3 C3B3 B3A3"/>
    </vehicle>
    <vehicle id="veh55" type="veh_passenger" depart="187.00" departLane="best" departSpeed="max">
        <route edges="E1D1 D1C1 C1B1 B1B0"/>
    </vehicle>
    <vehicle id="veh56" type="veh_passenger" depart="190.40" departLane="best" departSpeed="max">
        <route edges="C0C1 C1C2 C2C3 C3B3 B3A3"/>
    </vehicle>
    <vehicle id="veh57" type="veh_passenger" depart="193.80" departLane="best" departSpeed="max">
        <route edges="D0D1 D1D2 D2D3 D3C3 C3B3 B3A3"/>
    </vehicle>
    <vehicle id="veh58" type="veh_passenger" depart="197.20" departLane="best" departSpeed="max">
        <route edges="A2B2 B2C2 C2D2 D2D3 D3D4"/>
    </vehicle>
    <vehicle id="veh59" type="veh_passenger" depart="200.60" departLane="best" departSpeed="max">
        <route edges="E1D1 D1C1 C1C2 C2C3 C3C4"/>
    </vehicle>
    <vehicle id="veh60" type="veh_passenger" depart="204.00" departLane="best" departSpeed="max">
        <route edges="E2D2 D2C2 C2B2 B2B1"/>
    </vehicle>
    <vehicle id="veh61" type="veh_passenger" depart="207.40" departLane="best" departSpeed="max">
        <route edges="A3B3 B3C3 C3D3 D3D4"/>
    </vehicle>
    <vehicle id="veh62" type="veh_passenger" depart="210.80" departLane="best" departSpeed="max">
        <route edges="A1B1 B1C1 C1D1 D1E1"/>
    </vehicle>
    <vehicle id="veh63" type="veh_passenger" depart="214.20" departLane="best" departSpeed="max">
        <route edges="D4D3 D3C3 C3B3 B3A3"/>
    </vehicle>
    <vehicle id="veh64" type="veh_passenger" depart="217.60" departLane="best" departSpeed="max">
        <route edges="D4D3 D3D2 D2C2 C2B2 B2B1 B1B0"/>
    </vehicle>
    <vehicle id="veh65" type="veh_passenger" depart="221.00" departLane="best" departSpeed="max">
        <route edges="B0B1 B1B2 B2C2 C2D2 D2E2"/>
    </vehicle>
    <vehicle id="veh66" type="veh_passenger" depart="224.40" departLane="best" departSpeed="max">
        <route edges="E3D3 D3C3 C3B3 B3A3"/>
    </vehicle>
    <vehicle id="veh67" type="veh_passenger" depart="227.80" departLane="best" departSpeed="max">
        <route edges="E2D2 D2C2 C2B2 B2B1 B1B0"/>
    </vehicle>
    <vehicle id="veh68" type="veh_passenger" depart="231.20" departLane="best" departSpeed="max">
        <route edges="E3D3 D3D2 D2C2 C2B2 B2A2"/>
    </vehicle>
    <vehicle id="veh69" type="veh_passenger" depart="234.60" departLane="best" departSpeed="max">
        <route edges="E3D3 D3C3 C3B3 B3A3"/>
    </vehicle>
    <vehicle id="veh70" type="veh_passenger" depart="238.00" departLane="best" departSpeed="max">
        <route edges="C0C1 C1C2 C2C3 C3C4"/>
    </vehicle>
    <vehicle id="veh71" type="veh_passenger" depart="241.40" departLane="best">
        <route edges="B1C1 C1D1 D1E1"/>
    </vehicle>
    <vehicle id="veh72" type="veh_passenger" depart="244.80" departLane="best" departSpeed="max">
        <route edges="A1B1 B1C1 C1D1 D1D2 D2D3 D3D4"/>
    </vehicle>
    <vehicle id="veh73" type="veh_passenger" depart="248.20" departLane="best">
        <route edges="D3C3 C3C2 C2D2 D2D1 D1D0"/>
    </vehicle>
    <vehicle id="veh74" type="veh_passenger" depart="251.60" departLane="best" departSpeed="max">
        <route edges="B4B3 B3B2 B2B1 B1B0"/>
    </vehicle>
    <vehicle id="veh75" type="veh_passenger" depart="255.00" departLane="best" departSpeed="max">
        <route edges="D0D1 D1C1 C1B1 B1B2 B2B3 B3B4"/>
    </vehicle>
    <vehicle id="veh76" type="veh_passenger" depart="258.40" departLane="best">
        <route edges="B3C3 C3D3 D3D2 D2E2"/>
    </vehicle>
    <vehicle id="veh77" type="veh_passenger" depart="261.80" departLane="best">
        <route edges="B3B2 B2C2 C2C1 C1C0"/>
    </vehicle>
    <vehicle id="veh78" type="veh_passenger" depart="265.20" departLane="best" departSpeed="max">
        <route edges="C0C1 C1C2 C2C3 C3B3 B3A3"/>
    </vehicle>
    <vehicle id="veh79" type="veh_passenger" depart="268.60" departLane="best" departSpeed="max">
        <route edges="A3B3 B3C3 C3C2 C2C1 C1C0"/>
    </vehicle>
    <vehicle id="veh80" type="veh_passenger" depart="272.00" departLane="best" departSpeed="max">
        <route edges="C0C1 C1C2 C2C3 C3C4"/>
    </vehicle>
    <vehicle id="veh81" type="veh_passenger" depart="275.40" departLane="best">
        <route edges="C1D1 D1D2 D2D3 D3D4"/>
    </vehicle>
    <vehicle id="veh82" type="veh_passenger" depart="278.80" departLane="best" departSpeed="max">
        <route edges="D4D3 D3D2 D2C2 C2B2 B2A2"/>
    </vehicle>
    <vehicle id="veh83" type="veh_passenger" depart="282.20" departLane="best" departSpeed="max">
        <route edges="A2B2 B2C2 C2D2"/>
    </vehicle>
    <vehicle id="veh84" type="veh_passenger" depart="285.60" departLane="best" departSpeed="max">
        <route edges="D0D1 D1C1 C1B1 B1B2 B2B3 B3B4"/>
    </vehicle>
    <vehicle id="veh85" type="veh_passenger" depart="289.00" departLane="best" departSpeed="max">
        <route edges="D4D3 D3D2 D2D1 D1E1"/>
    </vehicle>
    <vehicle id="veh86" type="veh_passenger" depart="292.40" departLane="best" departSpeed="max">
        <route edges="D0D1 D1C1 C1B1 B1B2 B2B3"/>
    </vehicle>
    <vehicle id="veh87" type="veh_passenger" depart="295.80" departLane="best" departSpeed="max">
        <route edges="E1D1 D1C1 C1B1 B1B0"/>
    </vehicle>
    <vehicle id="veh88" type="veh_passenger" depart="299.20" departLane="best" departSpeed="max">
        <route edges="D0D1 D1C1 C1B1 B1A1"/>
    </vehicle>
    <vehicle id="veh89" type="veh_passenger" depart="302.60" departLane="best" departSpeed="max">
        <route edges="A3B3 B3C3 C3D3 D3E3"/>
    </vehicle>
    <vehicle id="veh90" type="veh_passenger" depart="306.00" departLane="best">
        <route edges="B1B2 B2C2 C2D2 D2E2"/>
    </vehicle>
    <vehicle id="veh91" type="veh_passenger" depart="309.40" departLane="best" departSpeed="max">
        <route edges="D0D1 D1D2 D2D3 D3E3"/>
    </vehicle>
    <vehicle id="veh92" type="veh_passenger" depart="312.80" departLane="best" departSpeed="max">
        <route edges="E1D1 D1C1 C1C2 C2C3 C3C4"/>
    </vehicle>
    <vehicle id="veh93" type="veh_passenger" depart="316.20" departLane="best" departSpeed="max">
        <route edges="D0D1 D1D2 D2D3 D3C3 C3B3 B3A3"/>
    </vehicle>
    <vehicle id="veh94" type="veh_passenger" depart="319.60" departLane="best" departSpeed="max">
        <route edges="C0C1 C1C2 C2D2 D2D3 D3D4"/>
    </vehicle>
    <vehicle id="veh95" type="veh_passenger" depart="323.00" departLane="best" departSpeed="max">
        <route edges="B4B3 B3B2 B2B1 B1A1"/>
    </vehicle>
    <vehicle id="veh96" type="veh_passenger" depart="326.40" departLane="best" departSpeed="max">
        <route edges="B4B3 B3B2 B2B1 B1C1 C1D1 D1E1"/>
    </vehicle>
    <vehicle id="veh97" type="veh_passenger" depart="329.80" departLane="best" departSpeed="max">
        <route edges="B0B1 B1B2 B2B3"/>
    </vehicle>
    <vehicle id="veh98" type="veh_passenger" depart="333.20" departLane="best" departSpeed="max">
        <route edges="B4B3 B3C3 C3D3 D3D2 D2D1 D1D0"/>
    </vehicle>
    <vehicle id="veh99" type="veh_passenger" depart="336.60" departLane="best" departSpeed="max">
        <route edges="D0D1 D1C1 C1B1 B1A1"/>
    </vehicle>
    <vehicle id="veh100" type="veh_passenger" depart="340.00" departLane="best" departSpeed="max">
        <route edges="C0C1 C1C2 C2C3 C3C4"/>
    </vehicle>
    <vehicle id="veh101" type="veh_passenger" depart="343.40" departLane="best" departSpeed="max">
        <route edges="A1B1 B1C1 C1D1 D1D0"/>
    </vehicle>
    <vehicle id="veh102" type="veh_passenger" depart="346.80" departLane="best" departSpeed="max">
        <route edges="B0B1 B1B2 B2B3 B3B4"/>
    </vehicle>
    <vehicle id="veh103" type="veh_passenger" depart="350.20" departLane="best" departSpeed="max">
        <route edges="E3D3 D3C3 C3B3 B3B4"/>
    </vehicle>
    <vehicle id="veh104" type="veh_passenger" depart="353.60" departLane="best" departSpeed="max">
        <route edges="E3D3 D3D2 D2C2 C2B2 B2A2"/>
    </vehicle>
    <vehicle id="veh105" type="veh_passenger" depart="357.00" departLane="best" departSpeed="max">
        <route edges="A3B3 B3C3 C3D3 D3D2 D2D1 D1D0"/>
    </vehicle>
    <vehicle id="veh106" type="veh_passenger" depart="360.40" departLane="best" departSpeed="max">
        <route edges="A3B3 B3C3 C3D3"/>
    </vehicle>
    <vehicle id="veh107" type="veh_passenger" depart="363.80" departLane="best">
        <route edges="D3C3 C3B3 B3B2 B2B1 B1B0"/>
    </vehicle>
    <vehicle id="veh108" type="veh_passenger" depart="367.20" departLane="best">
        <route edges="B3C3 C3D3 D3D2 D2D1 D1D0"/>
    </vehicle>
    <vehicle id="veh109" type="veh_passenger" depart="370.60" departLane="best" departSpeed="max">
        <route edges="E3D3 D3C3 C3C2 C2C1 C1C0"/>
    </vehicle>
    <vehicle id="veh110" type="veh_passenger" depart="374.00" departLane="best" departSpeed="max">
        <route edges="E1D1 D1C1 C1C2 C2C3 C3C4"/>
    </vehicle>
    <vehicle id="veh111" type="veh_passenger" depart="377.40" departLane="best" departSpeed="max">
        <route edges="A3B3 B3C3 C3D3 D3E3"/>
    </vehicle>
    <vehicle id="veh112" type="veh_passenger" depart="380.80" departLane="best" departSpeed="max">
        <route edges="C0C1 C1B1 B1B2 B2B3 B3C3"/>
    </vehicle>
    <vehicle id="veh113" type="veh_passenger" depart="384.20" departLane="best" departSpeed="max">
        <route edges="A2B2 B2B3 B3C3 C3D3 D3E3"/>
    </vehicle>
    <vehicle id="veh114" type="veh_passenger" depart="387.60" departLane="best">
        <route edges="B2B1 B1C1 C1C2 C2D2 D2E2"/>
    </vehicle>
    <vehicle id="veh115" type="veh_passenger" depart="391.00" departLane="best">
        <route edges="B2B1 B1C1 C1C2 C2D2 D2E2"/>
    </vehicle>
    <vehicle id="veh116" type="veh_passenger" depart="394.40" departLane="best" departSpeed="max">
        <route edges="E1D1 D1C1 C1B1 B1B0"/>
    </vehicle>
    <vehicle id="veh117" type="veh_passenger" depart="397.80" departLane="best" departSpeed="max">
        <route edges="E2D2 D2C2 C2C3 C3B3 B3A3"/>
    </vehicle>
    <vehicle id="veh118" type="veh_passenger" depart="401.20" departLane="best" departSpeed="max">
        <route edges="B4B3 B3B2 B2B1 B1A1"/>
    </vehicle>
    <vehicle id="veh119" type="veh_passenger" depart="404.60" departLane="best" departSpeed="max">
        <route edges="E1D1 D1C1 C1C2 C2B2 B2A2"/>
    </vehicle>
    <vehicle id="veh120" type="veh_passenger" depart="408.00" departLane="best" departSpeed="max">
        <route edges="B0B1 B1B2 B2C2 C2D2 D2E2"/>
    </vehicle>
    <vehicle id="veh121" type="veh_passenger" depart="411.40" departLane="best">
        <route edges="D1D2 D2D3 D3C3 C3B3 B3A3"/>
    </vehicle>
    <vehicle id="veh122" type="veh_passenger" depart="414.80" departLane="best" departSpeed="max">
        <route edges="A1B1 B1B2 B2B3 B3C3 C3D3 D3E3"/>
    </vehicle>
    <vehicle id="veh123" type="veh_passenger" depart="418.20" departLane="best" departSpeed="max">
        <route edges="A2B2 B2C2 C2C1 C1D1 D1E1"/>
    </vehicle>
    <vehicle id="veh124" type="veh_passenger" depart="421.60" departLane="best" departSpeed="max">
        <route edges="C4C3 C3C2 C2C1 C1D1"/>
    </vehicle>
    <vehicle id="veh125" type="veh_passenger" depart="425.00" departLane="best">
        <route edges="C3B3 B3B2 B2C2 C2C1 C1C0"/>
    </vehicle>
    <vehicle id="veh126" type="veh_passenger" depart="428.40" departLane="best">
        <route edges="D2C2 C2B2 B2B3 B3A3"/>
    </vehicle>
    <vehicle id="veh127" type="veh_passenger" depart="431.80" departLane="best" departSpeed="max">
        <route edges="B0B1 B1B2 B2B3"/>
    </vehicle>
    <vehicle id="veh128" type="veh_passenger" depart="435.20" departLane="best" departSpeed="max">
        <route edges="E3D3 D3C3 C3B3"/>
    </vehicle>
    <vehicle id="veh129" type="veh_passenger" depart="438.60" departLane="best" departSpeed="max">
        <route edges="E1D1 D1C1 C1C2 C2C3 C3C4"/>
    </vehicle>
    <vehicle id="veh130" type="veh_passenger" depart="442.00" departLane="best" departSpeed="max">
        <route edges="E3D3 D3D2 D2C2 C2B2"/>
    </vehicle>
    <vehicle id="veh131" type="veh_passenger" depart="445.40" departLane="best" departSpeed="max">
        <route edges="E3D3 D3C3 C3B3 B3B2 B2B1 B1B0"/>
    </vehicle>
    <vehicle id="veh132" type="veh_passenger" depart="448.80" departLane="best" departSpeed="max">
        <route edges="E3D3 D3C3 C3B3 B3B2"/>
    </vehicle>
    <vehicle id="veh133" type="veh_passenger" depart="452.20" departLane="best" departSpeed="max">
        <route edges="D0D1 D1C1 C1C2 C2C3 C3D3"/>
    </vehicle>
    <vehicle id="veh134" type="veh_passenger" depart="455.60" departLane="best" departSpeed="max">
        <route edges="D0D1 D1D2 D2C2 C2B2 B2A2"/>
    </vehicle>
    <vehicle id="veh135" type="veh_passenger" depart="459.00" departLane="best" departSpeed="max">
        <route edges="A3B3 B3B2 B2B1 B1B0"/>
    </vehicle>
    <vehicle id="veh136" type="veh_passenger" depart="462.40" departLane="best" departSpeed="max">
        <route edges="B0B1 B1C1 C1D1 D1E1"/>
    </vehicle>
    <vehicle id="veh137" type="veh_passenger" depart="465.80" departLane="best">
        <route edges="D1C1 C1C2 C2D2 D2D3 D3D4"/>
    </vehicle>
    <vehicle id="veh138" type="veh_passenger" depart="469.20" departLane="best" departSpeed="max">
        <route edges="D4D3 D3D2 D2D1 D1C1"/>
    </vehicle>
    <vehicle id="veh139" type="veh_passenger" depart="472.60" departLane="best" departSpeed="max">
        <route edges="D0D1 D1D2 D2D3 D3D4"/>
    </vehicle>
    <vehicle id="veh140" type="veh_passenger" depart="476.00" departLane="best" departSpeed="max">
        <route edges="D0D1 D1D2 D2D3 D3D4"/>
    </vehicle>
    <vehicle id="veh141" type="veh_passenger" depart="479.40" departLane="best" departSpeed="max">
        <route edges="E1D1 D1C1 C1B1 B1B0"/>
    </vehicle>
    <vehicle id="veh142" type="veh_passenger" depart="482.80" departLane="best" departSpeed="max">
        <route edges="A2B2 B2B3 B3C3 C3D3 D3E3"/>
    </vehicle>
    <vehicle id="veh143" type="veh_passenger" depart="486.20" departLane="best" departSpeed="max">
        <route edges="E1D1 D1C1 C1C2 C2C3 C3C4"/>
    </vehicle>
    <vehicle id="veh144" type="veh_passenger" depart="489.60" departLane="best" departSpeed="max">
        <route edges="D0D1 D1D2 D2D3 D3C3 C3B3 B3A3"/>
    </vehicle>
    <vehicle id="veh145" type="veh_passenger" depart="493.00" departLane="best" departSpeed="max">
        <route edges="A1B1 B1C1 C1D1 D1E1"/>
    </vehicle>
    <vehicle id="veh146" type="veh_passenger" depart="496.40" departLane="best" departSpeed="max">
        <route edges="E2D2 D2C2 C2B2 B2A2"/>
    </vehicle>
    <vehicle id="veh147" type="veh_passenger" depart="499.80" departLane="best" departSpeed="max">
        <route edges="C4C3 C3D3 D3D2 D2D1 D1D0"/>
    </vehicle>
    <vehicle id="veh148" type="veh_passenger" depart="503.20" departLane="best" departSpeed="max">
        <route edges="D0D1 D1D2 D2D3 D3C3"/>
    </vehicle>
    <vehicle id="veh149" type="veh_passenger" depart="506.60" departLane="best">
        <route edges="B2C2 C2C3 C3D3 D3E3"/>
    </vehicle>
    <vehicle id="veh150" type="veh_passenger" depart="510.00" departLane="best">
        <route edges="C1C2 C2B2 B2B3 B3B4"/>
    </vehicle>
    <vehicle id="veh151" type="veh_passenger" depart="513.40" departLane="best" departSpeed="max">
        <route edges="B4B3 B3C3 C3D3 D3E3"/>
    </vehicle>
    <vehicle id="veh152" type="veh_passenger" depart="516.80" departLane="best" departSpeed="max">
        <route edges="E3D3 D3D2 D2D1 D1D0"/>
    </vehicle>
    <vehicle id="veh153" type="veh_passenger" depart="520.20" departLane="best">
        <route edges="C3C2 C2C1 C1C0"/>
    </vehicle>
    <vehicle id="veh154" type="veh_passenger" depart="523.60" departLane="best" departSpeed="max">
        <route edges="B0B1 B1B2 B2B3 B3B4"/>
    </vehicle>
    <vehicle id="veh155" type="veh_passenger" depart="527.00" departLane="best" departSpeed="max">
        <route edges="A3B3 B3C3 C3D3 D3E3"/>
    </vehicle>
    <vehicle id="veh156" type="veh_passenger" depart="530.40" departLane="best">
        <route edges="C3D3 D3D2 D2D1 D1C1 C1B1 B1B0"/>
    </vehicle>
    <vehicle id="veh157" type="veh_passenger" depart="533.80" departLane="best">
        <route edges="B2B1 B1C1 C1C2 C2D2 D2E2"/>
    </vehicle>
    <vehicle id="veh158" type="veh_passenger" depart="537.20" departLane="best" departSpeed="max">
        <route edges="E3D3 D3C3 C3B3 B3A3"/>
    </vehicle>
    <vehicle id="veh159" type="veh_passenger" depart="540.60" departLane="best" departSpeed="max">
        <route edges="C0C1 C1C2 C2D2 D2D3 D3D4"/>
    </vehicle>
    <vehicle id="veh160" type="veh_passenger" depart="544.00" departLane="best">
        <route edges="C1C2 C2B2 B2B3 B3B4"/>
    </vehicle>
    <vehicle id="veh161" type="veh_passenger" depart="547.40" departLane="best" departSpeed="max">
        <route edges="D4D3 D3D2 D2D1 D1C1 C1B1 B1A1"/>
    </vehicle>
    <vehicle id="veh162" type="veh_passenger" depart="550.80" departLane="best" departSpeed="max">
        <route edges="D4D3 D3D2 D2D1 D1C1 C1B1"/>
    </vehicle>
    <vehicle id="veh163" type="veh_passenger" depart="554.20" departLane="best" departSpeed="max">
        <route edges="D0D1 D1D2 D2C2 C2B2 B2A2"/>
    </vehicle>
    <vehicle id="veh164" type="veh_passenger" depart="557.60" departLane="best" departSpeed="max">
        <route edges="E1D1 D1C1 C1B1 B1A1"/>
    </vehicle>
    <vehicle id="veh165" type="veh_passenger" depart="561.00" departLane="best" departSpeed="max">
        <route edges="A2B2 B2C2 C2D2 D2D1 D1D0"/>
    </vehicle>
    <vehicle id="veh166" type="veh_passenger" depart="564.40" departLane="best">
        <route edges="D3C3 C3C2 C2C1 C1C0"/>
    </vehicle>
    <vehicle id="veh167" type="veh_passenger" depart="567.80" departLane="best" departSpeed="max">
        <route edges="A2B2 B2C2 C2D2 D2D1 D1D0"/>
    </vehicle>
    <vehicle id="veh168" type="veh_passenger" depart="571.20" departLane="best">
        <route edges="D1D2 D2D3 D3D4"/>
    </vehicle>
    <vehicle id="veh169" type="veh_passenger" depart="574.60" departLane="best" departSpeed="max">
        <route edges="A1B1 B1C1 C1D1 D1D2 D2D3"/>
    </vehicle>
    <vehicle id="veh170" type="veh_passenger" depart="578.00" departLane="best" departSpeed="max">
        <route edges="A3B3 B3B2 B2B1 B1B0"/>
    </vehicle>
    <vehicle id="veh171" type="veh_passenger" depart="581.40" departLane="best">
        <route edges="B1B2 B2B3 B3C3 C3D3 D3D4"/>
    </vehicle>
    <vehicle id="veh172" type="veh_passenger" depart="584.80" departLane="best" departSpeed="max">
        <route edges="A1B1 B1B2 B2C2 C2D2 D2E2"/>
    </vehicle>
    <vehicle id="veh173" type="veh_passenger" depart="588.20" departLane="best" departSpeed="max">
        <route edges="A3B3 B3C3 C3C2 C2C1 C1C0"/>
    </vehicle>
    <vehicle id="veh174" type="veh_passenger" depart="591.60" departLane="best">
        <route edges="B1C1 C1C2 C2D2 D2E2"/>
    </vehicle>
    <vehicle id="veh175" type="veh_passenger" depart="595.00" departLane="best" departSpeed="max">
        <route edges="E3D3 D3C3 C3B3 B3A3"/>
    </vehicle>
    <vehicle id="veh176" type="veh_passenger" depart="598.40" departLane="best" departSpeed="max">
        <route edges="E3D3 D3D2 D2D1 D1D0"/>
    </vehicle>
    <vehicle id="veh177" type="veh_passenger" depart="601.80" departLane="best" departSpeed="max">
        <route edges="A1B1 B1C1 C1C2 C2C3 C3C4"/>
    </vehicle>
    <vehicle id="veh178" type="veh_passenger" depart="605.20" departLane="best">
        <route edges="B2C2 C2D2 D2E2"/>
    </vehicle>
    <vehicle id="veh179" type="veh_passenger" depart="608.60" departLane="best" departSpeed="max">
        <route edges="D0D1 D1D2 D2D3 D3D4"/>
    </vehicle>
    <vehicle id="veh180" type="veh_passenger" depart="612.00" departLane="best">
        <route edges="C1B1 B1B2 B2C2 C2C3 C3C4"/>
    </vehicle>
    <vehicle id="veh181" type="veh_passenger" depart="615.40" departLane="best">
        <route edges="B2C2 C2D2 D2D1 D1E1"/>
    </vehicle>
    <vehicle id="veh182" type="veh_passenger" depart="618.80" departLane="best" departSpeed="max">
        <route edges="E1D1 D1C1 C1C2 C2C3 C3B3 B3A3"/>
    </vehicle>
    <vehicle id="veh183" type="veh_passenger" depart="622.20" departLane="best" departSpeed="max">