<?xml version="1.0" encoding="UTF-8"?>

<!-- generated on Thu Jun  4 08:51:01 2020 by Eclipse SUMO duarouter Version 1.6.0
<configuration xmlns:xsi="http://www.w3.org/2001/XMLSchema-instance" xsi:noNamespaceSchemaLocation="http://sumo.dlr.de/xsd/duarouterConfiguration.xsd">

    <input>
        <net-file value="optimal.net.xml"/>
        <route-files value="optimal.truck.trips.xml"/>
    </input>

    <output>
        <output-file value="optimal.truck.rou.xml"/>
        <alternatives-output value="optimal.truck.rou.alt.xml"/>
    </output>

    <time>
        <begin value="0"/>
        <end value="1800.0"/>
    </time>

    <report>
        <no-warnings value="true"/>
        <ignore-errors value="true"/>
        <no-step-log value="true"/>
    </report>

</configuration>
-->

<routes xmlns:xsi="http://www.w3.org/2001/XMLSchema-instance" xsi:noNamespaceSchemaLocation="http://sumo.dlr.de/xsd/routes_file.xsd">
    <vType id="truck_truck" vClass="truck"/>
    <vehicle id="truck0" type="truck_truck" depart="0.00" departLane="best" departSpeed="max">
        <route edges="D4D3 D3D2 D2D1 D1C1 C1B1 B1B2 B2C2 C2D2 D2E2"/>
    </vehicle>
    <vehicle id="truck1" type="truck_truck" depart="31.00" departLane="best" departSpeed="max">
        <route edges="B0B1 B1B2 B2B3 B3C3 C3C2 C2B2 B2B1 B1B0"/>
    </vehicle>
    <vehicle id="truck2" type="truck_truck" depart="62.00" departLane="best" departSpeed="max">
        <route edges="C0C1 C1C2 C2C3 C3B3 B3B2 B2C2 C2C3 C3D3 D3E3"/>
    </vehicle>
    <vehicle id="truck3" type="truck_truck" depart="93.00" departLane="best" departSpeed="max">
        <route edges="E1D1 D1C1 C1B1 B1B2 B2C2 C2C1 C1D1 D1E1"/>
    </vehicle>
    <vehicle id="truck4" type="truck_truck" depart="124.00" departLane="best" departSpeed="max">
        <route edges="A3B3 B3C3 C3D3 D3D2 D2D1 D1C1 C1B1 B1B0"/>
    </vehicle>
    <vehicle id="truck5" type="truck_truck" depart="155.00" departLane="best" departSpeed="max">
        <route edges="B0B1 B1B2 B2C2 C2C3 C3B3 B3B2 B2C2 C2D2 D2D1 D1D0"/>
    </vehicle>
    <vehicle id="truck6" type="truck_truck" depart="186.00" departLane="best" departSpeed="max">
        <route edges="E2D2 D2D1 D1C1 C1B1 B1B2 B2C2 C2D2 D2D1 D1E1"/>
    </vehicle>
    <vehicle id="truck7" type="truck_truck" depart="217.00" departLane="best" departSpeed="max">
        <route edges="A1B1 B1B2 B2C2 C2D2 D2D1 D1C1 C1B1 B1B2 B2B3 B3B4"/>
    </vehicle>
    <vehicle id="truck8" type="truck_truck" depart="248.00" departLane="best" departSpeed="max">
        <route edges="E3D3 D3C3 C3B3 B3B2 B2C2 C2C3 C3D3 D3E3"/>
    </vehicle>
    <vehicle id="truck9" type="truck_truck" depart="279.00" departLane="best" departSpeed="max">
        <route edges="C0C1 C1C2 C2D2 D2D3 D3C3 C3C2 C2D2 D2D1 D1D0"/>
    </vehicle>
    <vehicle id="truck10" type="truck_truck" depart="310.00" departLane="best" departSpeed="max">
        <route edges="B4B3 B3C3 C3C2 C2C1 C1B1 B1B2 B2B3 B3B4"/>
    </vehicle>
    <vehicle id="truck11" type="truck_truck" depart="341.00" departLane="best" departSpeed="max">
        <route edges="E3D3 D3D2 D2C2 C2B2 B2B3 B3C3 C3D3 D3D2 D2E2"/>
    </vehicle>
    <vehicle id="truck12" type="truck_truck" depart="372.00" departLane="best" departSpeed="max">
        <route edges="B4B3 B3C3 C3C2 C2C1 C1B1 B1B2 B2C2 C2D2 D2E2"/>
    </vehicle>
    <vehicle id="truck13" type="truck_truck" depart="403.00" departLane="best" departSpeed="max">
        <route edges="B0B1 B1B2 B2C2 C2C3 C3B3 B3B2 B2C2 C2D2 D2E2"/>
    </vehicle>
    <vehicle id="truck14" type="truck_truck" depart="434.00" departLane="best" departSpeed="max">
        <route edges="A2B2 B2C2 C2C1 C1D1 D1D2 D2C2 C2C3 C3C4"/>
    </vehicle>
    <vehicle id="truck15" type="truck_truck" depart="465.00" departLane="best" departSpeed="max">
        <route edges="B0B1 B1B2 B2C2 C2C3 C3B3 B3B2 B2C2 C2D2 D2D1 D1D0"/>
    </vehicle>
    <vehicle id="truck16" type="truck_truck" depart="496.00" departLane="best" departSpeed="max">
        <route edges="D0D1 D1D2 D2D3 D3C3 C3C2 C2C1 C1C0"/>
    </vehicle>
    <vehicle id="truck17" type="truck_truck" depart="527.00" departLane="best" departSpeed="max">
        <route edges="D4D3 D3D2 D2C2 C2C1 C1D1 D1D2 D2D3 D3D4"/>
    </vehicle>
    <vehicle id="truck18" type="truck_truck" depart="558.00" departLane="best" departSpeed="max">
        <route edges="D4D3 D3D2 D2C2 C2B2 B2B1 B1C1 C1D1 D1E1"/>
    </vehicle>
    <vehicle id="truck19" type="truck_truck" depart="589.00" departLane="best" departSpeed="max">
        <route edges="A1B1 B1C1 C1D1 D1D2 D2C2 C2B2 B2B3 B3A3"/>
    </vehicle>
    <vehicle id="truck20" type="truck_truck" depart="620.00" departLane="best" departSpeed="max">
        <route edges="C0C1 C1B1 B1B2 B2B3 B3C3 C3D3 D3D2 D2E2"/>
    </vehicle>
    <vehicle id="truck21" type="truck_truck" depart="651.00" departLane="best" departSpeed="max">
        <route edges="D4D3 D3D2 D2D1 D1C1 C1B1 B1B2 B2B3 B3B4"/>
    </vehicle>
    <vehicle id="truck22" type="truck_truck" depart="682.00" departLane="best" departSpeed="max">
        <route edges="B4B3 B3B2 B2B1 B1C1 C1D1 D1D2 D2C2 C2C1 C1B1 B1A1"/>
    </vehicle>
    <vehicle id="truck23" type="truck_truck" depart="713.00" departLane="best" departSpeed="max">
        <route edges="E2D2 D2C2 C2C3 C3B3 B3B2 B2B1 B1B0"/>
    </vehicle>
    <vehicle id="truck24" type="truck_truck" depart="744.00" departLane="best" departSpeed="max">
        <route edges="C0C1 C1C2 C2D2 D2D3 D3C3 C3C2 C2C1 C1B1 B1A1"/>
    </vehicle>
    <vehicle id="truck25" type="truck_truck" depart="775.00" departLane="best" departSpeed="max">
        <route edges="A1B1 B1B2 B2C2 C2D2 D2D1 D1C1 C1C2 C2B2 B2A2"/>
    </vehicle>
    <vehicle id="truck26" type="truck_truck" depart="806.00" departLane="best" departSpeed="max">
        <route edges="A3B3 B3C3 C3C2 C2D2 D2D3 D3C3 C3B3 B3B2 B2B1 B1B0"/>
    </vehicle>
    <vehicle id="truck27" type="truck_truck" depart="837.00" departLane="best" departSpeed="max">
        <route edges="B4B3 B3B2 B2B1 B1C1 C1D1 D1D2 D2C2 C2C3 C3C4"/>
    </vehicle>
    <vehicle id="truck28" type="truck_truck" depart="868.00" departLane="best" departSpeed="max">
        <route edges="D0D1 D1C1 C1B1 B1B2 B2B3 B3C3 C3D3 D3D2 D2D1 D1D0"/>
    </vehicle>
    <vehicle id="truck29" type="truck_truck" depart="899.00" departLane="best" departSpeed="max">
        <route edges="B4B3 B3C3 C3C2 C2C1 C1B1 B1B2 B2C2 C2C1 C1D1 D1E1"/>
    </vehicle>
    <vehicle id="truck30" type="truck_truck" depart="930.00" departLane="best" departSpeed="max">
        <route edges="A2B2 B2C2 C2D2 D2D1 D1C1 C1B1 B1A1"/>
    </vehicle>
    <vehicle id="truck31" type="truck_truck" depart="961.00" departLane="best" departSpeed="max">
        <route edges="D4D3 D3D2 D2D1 D1C1 C1B1 B1B2 B2B3 B3B4"/>
    </vehicle>
    <vehicle id="truck32" type="truck_truck" depart="992.00" departLane="best" departSpeed="max">
        <route edges="C4C3 C3C2 C2C1 C1D1 D1D2 D2C2 C2C1 C1B1 B1A1"/>
    </vehicle>
    <vehicle id="truck33" type="truck_truck" depart="1023.00" departLane="best" departSpeed="max">
        <route edges="A2B2 B2C2 C2C1 C1D1 D1D2 D2C2 C2B2 B2B3 B3B4"/>
    </vehicle>
    <vehicle id="truck34" type="truck_truck" depart="1054.00" departLane="best" departSpeed="max">
        <route edges="A3B3 B3C3 C3C2 C2C1 C1D1 D1D2 D2C2 C2C1 C1B1 B1A1"/>
    </vehicle>
    <vehicle id="truck35" type="truck_truck" depart="1085.00" departLane="best" departSpeed="max">
        <route edges="A2B2 B2B3 B3C3 C3D3 D3D2 D2D1 D1D0"/>
    </vehicle>
    <vehicle id="truck36" type="truck_truck" depart="1116.00" departLane="best" departSpeed="max">
        <route edges="B0B1 B1B2 B2B3 B3C3 C3D3 D3D2 D2D1 D1C1 C1C0"/>
    </vehicle>
    <vehicle id="truck37" type="truck_truck" depart="1147.00" departLane="best" departSpeed="max">
        <route edges="A3B3 B3C3 C3C2 C2D2 D2D3 D3C3 C3C2 C2B2 B2A2"/>
    </vehicle>
    <vehicle id="truck38" type="truck_truck" depart="1178.00" departLane="best" departSpeed="max">
        <route edges="D0D1 D1C1 C1B1 B1B2 B2B3 B3C3 C3D3 D3E3"/>
    </vehicle>
    <vehicle id="truck39" type="truck_truck" depart="1209.00" departLane="best" departSpeed="max">
        <route edges="B4B3 B3B2 B2B1 B1C1 C1D1 D1D2 D2C2 C2C3 C3C4"/>
    </vehicle>
    <vehicle id="truck40" type="truck_truck" depart="1240.00" departLane="best" departSpeed="max">
        <route edges="D4D3 D3D2 D2D1 D1C1 C1B1 B1B2 B2B3 B3C3 C3C4"/>
    </vehicle>
    <vehicle id="truck41" type="truck_truck" depart="1271.00" departLane="best" departSpeed="max">
        <route edges="E3D3 D3D2 D2C2 C2B2 B2B3 B3C3 C3D3 D3E3"/>
    </vehicle>
    <vehicle id="truck42" type="truck_truck" depart="1302.00" departLane="best" departSpeed="max">
        <route edges="D0D1 D1C1 C1C2 C2C3 C3D3 D3D2 D2D1 D1C1 C1B1 B1B0"/>
    </vehicle>
    <vehicle id="truck43" type="truck_truck" depart="1333.00" departLane="best" departSpeed="max">
        <route edges="C4C3 C3C2 C2C1 C1D1 D1D2 D2C2 C2C3 C3C4"/>
    </vehicle>
    <vehicle id="truck44" type="truck_truck" depart="1364.00" departLane="best" departSpeed="max">
        <route edges="B0B1 B1B2 B2C2 C2C3 C3B3 B3B2 B2B1 B1C1 C1D1 D1E1"/>
    </vehicle>
    <vehicle id="truck45" type="truck_truck" depart="1395.00" departLane="best" departSpeed="max">
        <route edges="D4D3 D3D2 D2D1 D1C1 C1C2 C2C3 C3C4"/>
    </vehicle>
    <vehicle id="truck46" type="truck_truck" depart="1426.00" departLane="best" departSpeed="max">
        <route edges="E1D1 D1C1 C1C2 C2B2 B2B1 B1C1 C1D1 D1E1"/>
    </vehicle>
    <vehicle id="truck47" type="truck_truck" depart="1457.00" departLane="best" departSpeed="max">
        <route edges="B0B1 B1B2 B2B3 B3C3 C3D3 D3D2 D2D1 D1D0"/>
    </vehicle>
    <vehicle id="truck48" type="truck_truck" depart="1488.00" departLane="best" departSpeed="max">
        <route edges="E3D3 D3D2 D2D1 D1C1 C1B1 B1B2 B2B3 B3C3 C3D3 D3D4"/>
    </vehicle>
    <vehicle id="truck49" type="truck_truck" depart="1519.00" departLane="best" departSpeed="max">
        <route edges="E3D3 D3C3 C3B3 B3B2 B2B1 B1C1 C1C2 C2C3 C3D3 D3E3"/>
    </vehicle>
    <vehicle id="truck50" type="truck_truck" depart="1550.00" departLane="best" departSpeed="max">
        <route edges="B4B3 B3B2 B2B1 B1C1 C1D1 D1D2 D2C2 C2C3 C3C4"/>
    </vehicle>
    <vehicle id="truck51" type="truck_truck" depart="1581.00" departLane="best" departSpeed="max">
        <route edges="A3B3 B3C3 C3D3 D3D2 D2C2 C2B2 B2A2"/>
    </vehicle>
    <vehicle id="truck52" type="truck_truck" depart="1612.00" departLane="best" departSpeed="max">
        <route edges="E1D1 D1C1 C1C2 C2C3 C3B3 B3B2 B2B1 B1C1 C1D1 D1E1"/>
    </vehicle>
    <vehicle id="truck53" type="truck_truck" depart="1643.00" departLane="best" departSpeed="max">
        <route edges="B4B3 B3B2 B2B1 B1C1 C1D1 D1D2 D2C2 C2C3 C3C4"/>
    </vehicle>
    <vehicle id="truck54" type="truck_truck" depart="1674.00" departLane="best" departSpeed="max">
        <route edges="E3D3 D3C3 C3B3 B3B2 B2C2 C2D2 D2D1 D1D0"/>
    </vehicle>
    <vehicle id="truck55" type="truck_truck" depart="1705.00" departLane="best" departSpeed="max">
        <route edges="D4D3 D3D2 D2C2 C2B2 B2B1 B1C1 C1C2 C2C3 C3D3 D3E3"/>
    </vehicle>
    <vehicle id="truck56" type="truck_truck" depart="1736.00" departLane="best" departSpeed="max">
        <route edges="D4D3 D3D2 D2D1 D1C1 C1C2 C2C3 C3D3 D3D4"/>
    </vehicle>
    <vehicle id="truck57" type="truck_truck" depart="1767.00" departLane="best" departSpeed="max">
        <route edges="A2B2 B2C2 C2D2 D2D1 D1C1 C1C2 C2B2 B2A2"/>
    </vehicle>
    <vehicle id="truck58" type="truck_truck" depart="1798.00" departLane="best" departSpeed="max">
        <route edges="D0D1 D1C1 C1C2 C2C3 C3D3 D3D2 D2D1 D1D0"/>
    </vehicle>
</routes>
