<?xml version="1.0" encoding="UTF-8"?>

<!-- generated on 05/11/20 11:10:25 by Eclipse SUMO duarouter Version 1.3.1
<configuration xmlns:xsi="http://www.w3.org/2001/XMLSchema-instance" xsi:noNamespaceSchemaLocation="http://sumo.dlr.de/xsd/duarouterConfiguration.xsd">

    <input>
        <net-file value="optimal3.net.xml"/>
        <route-files value="optimal.motorcycle.trips.xml"/>
    </input>

    <output>
        <output-file value="optimal.motorcycle.trips.xml.tmp"/>
        <write-trips value="true"/>
    </output>

    <time>
        <begin value="0"/>
        <end value="1800.0"/>
    </time>

    <report>
        <no-warnings value="true"/>
        <ignore-errors value="true"/>
        <no-step-log value="true"/>
    </report>

</configuration>
-->

<routes xmlns:xsi="http://www.w3.org/2001/XMLSchema-instance" xsi:noNamespaceSchemaLocation="http://sumo.dlr.de/xsd/routes_file.xsd">
    <vType id="moto_motorcycle" vClass="motorcycle"/>
    <trip id="moto0" type="moto_motorcycle" depart="0.00" departLane="best" departSpeed="max" from="C4C3" to="B1A1"/>
    <trip id="moto1" type="moto_motorcycle" depart="16.94" departLane="best" from="B3B2" to="B2C2"/>
    <trip id="moto2" type="moto_motorcycle" depart="33.88" departLane="best" from="D2C2" to="D1D0"/>
    <trip id="moto3" type="moto_motorcycle" depart="50.82" departLane="best" departSpeed="max" from="E1D1" to="B1B2"/>
    <trip id="moto4" type="moto_motorcycle" depart="67.77" departLane="best" from="C1C2" to="B1A1"/>
    <trip id="moto5" type="moto_motorcycle" depart="84.71" departLane="best" from="B2B1" to="C2C3"/>
    <trip id="moto6" type="moto_motorcycle" depart="101.65" departLane="best" departSpeed="max" from="A1B1" to="B2B3"/>
    <trip id="moto7" type="moto_motorcycle" depart="118.59" departLane="best" departSpeed="max" from="D0D1" to="C3B3"/>
    <trip id="moto8" type="moto_motorcycle" depart="135.53" departLane="best" from="B2B1" to="C3C4"/>
    <trip id="moto9" type="moto_motorcycle" depart="152.47" departLane="best" from="D3C3" to="B1A1"/>
    <trip id="moto10" type="moto_motorcycle" depart="169.42" departLane="best" from="D3C3" to="D1D0"/>
    <trip id="moto11" type="moto_motorcycle" depart="186.36" departLane="best" departSpeed="max" from="B4B3" to="B2A2"/>
    <trip id="moto12" type="moto_motorcycle" depart="203.30" departLane="best" departSpeed="max" from="E2D2" to="B3C3"/>
    <trip id="moto13" type="moto_motorcycle" depart="220.24" departLane="best" departSpeed="max" from="A3B3" to="B1B2"/>
    <trip id="moto14" type="moto_motorcycle" depart="237.18" departLane="best" departSpeed="max" from="D4D3" to="C3C4"/>
    <trip id="moto15" type="moto_motorcycle" depart="254.12" departLane="best" from="D3C3" to="D1E1"/>
    <trip id="moto16" type="moto_motorcycle" depart="271.07" departLane="best" from="C2D2" to="D3E3"/>
    <trip id="moto17" type="moto_motorcycle" depart="288.01" departLane="best" departSpeed="max" from="C0C1" to="C3B3"/>
    <trip id="moto18" type="moto_motorcycle" depart="304.95" departLane="best" from="D3D2" to="C3C4"/>
    <trip id="moto19" type="moto_motorcycle" depart="321.89" departLane="best" departSpeed="max" from="D4D3" to="C3C2"/>
    <trip id="moto20" type="moto_motorcycle" depart="338.83" departLane="best" from="D1C1" to="B1B0"/>
    <trip id="moto21" type="moto_motorcycle" depart="355.77" departLane="best" from="B2B1" to="B3B2"/>
    <trip id="moto22" type="moto_motorcycle" depart="372.72" departLane="best" departSpeed="max" from="A2B2" to="B3A3"/>
    <trip id="moto23" type="moto_motorcycle" depart="389.66" departLane="best" departSpeed="max" from="A3B3" to="B3B2"/>
    <trip id="moto24" type="moto_motorcycle" depart="406.60" departLane="best" departSpeed="max" from="C4C3" to="C1B1"/>
    <trip id="moto25" type="moto_motorcycle" depart="423.54" departLane="best" departSpeed="max" from="C0C1" to="B2C2"/>
    <trip id="moto26" type="moto_motorcycle" depart="440.48" departLane="best" from="B2C2" to="D3D4"/>
    <trip id="moto27" type="moto_motorcycle" depart="457.42" departLane="best" departSpeed="max" from="D0D1" to="C3C4"/>
    <trip id="moto28" type="moto_motorcycle" depart="474.36" departLane="best" from="B1B2" to="D1D2"/>
    <trip id="moto29" type="moto_motorcycle" depart="491.31" departLane="best" departSpeed="max" from="B0B1" to="C1C0"/>
    <trip id="moto30" type="moto_motorcycle" depart="508.25" departLane="best" departSpeed="max" from="E3D3" to="C3D3"/>
    <trip id="moto31" type="moto_motorcycle" depart="525.19" departLane="best" from="C3B3" to="D1D0"/>
    <trip id="moto32" type="moto_motorcycle" depart="542.13" departLane="best" departSpeed="max" from="D4D3" to="D2C2"/>
    <trip id="moto33" type="moto_motorcycle" depart="559.07" departLane="best" from="B2B1" to="B1A1"/>
    <trip id="moto34" type="moto_motorcycle" depart="576.01" departLane="best" departSpeed="max" from="B4B3" to="B3A3"/>
    <trip id="moto35" type="moto_motorcycle" depart="592.96" departLane="best" from="B2B1" to="D3D4"/>
    <trip id="moto36" type="moto_motorcycle" depart="609.90" departLane="best" departSpeed="max" from="E1D1" to="B3B4"/>
    <trip id="moto37" type="moto_motorcycle" depart="626.84" departLane="best" departSpeed="max" from="D0D1" to="C1C0"/>
    <trip id="moto38" type="moto_motorcycle" depart="643.78" departLane="best" departSpeed="max" from="E1D1" to="C2B2"/>
    <trip id="moto39" type="moto_motorcycle" depart="660.72" departLane="best" from="B2C2" to="B3A3"/>
    <trip id="moto40" type="moto_motorcycle" depart="677.66" departLane="best" from="C3B3" to="B3A3"/>
    <trip id="moto41" type="moto_motorcycle" depart="694.61" departLane="best" from="C3D3" to="D3D2"/>
    <trip id="moto42" type="moto_motorcycle" depart="711.55" departLane="best" from="C1B1" to="B2C2"/>
    <trip id="moto43" type="moto_motorcycle" depart="728.49" departLane="best" departSpeed="max" from="E3D3" to="C2C3"/>
    <trip id="moto44" type="moto_motorcycle" depart="745.43" departLane="best" departSpeed="max" from="A3B3" to="B1B0"/>
    <trip id="moto45" type="moto_motorcycle" depart="762.37" departLane="best" departSpeed="max" from="A3B3" to="C3D3"/>
    <trip id="moto46" type="moto_motorcycle" depart="779.31" departLane="best" from="D3C3" to="C1C2"/>
    <trip id="moto47" type="moto_motorcycle" depart="796.26" departLane="best" departSpeed="max" from="A2B2" to="C1C0"/>
    <trip id="moto48" type="moto_motorcycle" depart="813.20" departLane="best" departSpeed="max" from="E3D3" to="C2D2"/>
    <trip id="moto49" type="moto_motorcycle" depart="830.14" departLane="best" departSpeed="max" from="E3D3" to="D2E2"/>
    <trip id="moto50" type="moto_motorcycle" depart="847.08" departLane="best" departSpeed="max" from="A1B1" to="D1D2"/>
    <trip id="moto51" type="moto_motorcycle" depart="864.02" departLane="best" departSpeed="max" from="D0D1" to="C2D2"/>
    <trip id="moto52" type="moto_motorcycle" depart="880.96" departLane="best" from="B2C2" to="C3D3"/>
    <trip id="moto53" type="moto_motorcycle" depart="897.90" departLane="best" departSpeed="max" from="A3B3" to="C1C2"/>
    <trip id="moto54" type="moto_motorcycle" depart="914.85" departLane="best" from="C1D1" to="D3D4"/>
    <trip id="moto55" type="moto_motorcycle" depart="931.79" departLane="best" departSpeed="max" from="E1D1" to="B3A3"/>
    <trip id="moto56" type="moto_motorcycle" depart="948.73" departLane="best" from="C2C3" to="B2B1"/>
    <trip id="moto57" type="moto_motorcycle" depart="965.67" departLane="best" departSpeed="max" from="E1D1" to="D2E2"/>
    <trip id="moto58" type="moto_motorcycle" depart="982.61" departLane="best" from="B3C3" to="C3D3"/>
    <trip id="moto59" type="moto_motorcycle" depart="999.55" departLane="best" departSpeed="max" from="C4C3" to="B2A2"/>
    <trip id="moto60" type="moto_motorcycle" depart="1016.50" departLane="best" from="D2D1" to="C2D2"/>
    <trip id="moto61" type="moto_motorcycle" depart="1033.44" departLane="best" from="D2D3" to="C2D2"/>
    <trip id="moto62" type="moto_motorcycle" depart="1050.38" departLane="best" departSpeed="max" from="A1B1" to="B3B4"/>
    <trip id="moto63" type="moto_motorcycle" depart="1067.32" departLane="best" departSpeed="max" from="A1B1" to="D3D4"/>
    <trip id="moto64" type="moto_motorcycle" depart="1084.26" departLane="best" departSpeed="max" from="E1D1" to="D2D3"/>
    <trip id="moto65" type="moto_motorcycle" depart="1101.20" departLane="best" from="B3C3" to="B1B0"/>
    <trip id="moto66" type="moto_motorcycle" depart="1118.15" departLane="best" departSpeed="max" from="E1D1" to="D3D4"/>
    <trip id="moto67" type="moto_motorcycle" depart="1135.09" departLane="best" departSpeed="max" from="A3B3" to="C2C1"/>
    <trip id="moto68" type="moto_motorcycle" depart="1152.03" departLane="best" departSpeed="max" from="A2B2" to="D1E1"/>
    <trip id="moto69" type="moto_motorcycle" depart="1168.97" departLane="best" from="D2D1" to="B2A2"/>
    <trip id="moto70" type="moto_motorcycle" depart="1185.91" departLane="best" from="C2B2" to="C3B3"/>
    <trip id="moto71" type="moto_motorcycle" depart="1202.85" departLane="best" from="B2C2" to="D2E2"/>
    <trip id="moto72" type="moto_motorcycle" depart="1219.80" departLane="best" from="C1C2" to="B2C2"/>
    <trip id="moto73" type="moto_motorcycle" depart="1236.74" departLane="best" from="C2D2" to="D1E1"/>
    <trip id="moto74" type="moto_motorcycle" depart="1253.68" departLane="best" from="B1C1" to="B3B4"/>
    <trip id="moto75" type="moto_motorcycle" depart="1270.62" departLane="best" departSpeed="max" from="E3D3" to="D1C1"/>
    <trip id="moto76" type="moto_motorcycle" depart="1287.56" departLane="best" from="C1D1" to="C2C3"/>
    <trip id="moto77" type="moto_motorcycle" depart="1304.50" departLane="best" departSpeed="max" from="A3B3" to="B2C2"/>
    <trip id="moto78" type="moto_motorcycle" depart="1321.45" departLane="best" departSpeed="max" from="B4B3" to="C3C4"/>
    <trip id="moto79" type="moto_motorcycle" depart="1338.39" departLane="best" from="B2B3" to="B2C2"/>
    <trip id="moto80" type="moto_motorcycle" depart="1355.33" departLane="best" departSpeed="max" from="A2B2" to="C3D3"/>
    <trip id="moto81" type="moto_motorcycle" depart="1372.27" departLane="best" from="B2B1" to="D3D2"/>
    <trip id="moto82" type="moto_motorcycle" depart="1389.21" departLane="best" departSpeed="max" from="D4D3" to="B1B0"/>
    <trip id="moto83" type="moto_motorcycle" depart="1406.15" departLane="best" from="B2B3" to="D1D0"/>
    <trip id="moto84" type="moto_motorcycle" depart="1423.09" departLane="best" from="B2B1" to="B2A2"/>
    <trip id="moto85" type="moto_motorcycle" depart="1440.04" departLane="best" departSpeed="max" from="E2D2" to="C3C2"/>
    <trip id="moto86" type="moto_motorcycle" depart="1456.98" departLane="best" from="C2B2" to="D2C2"/>
    <trip id="moto87" type="moto_motorcycle" depart="1473.92" departLane="best" from="D3C3" to="B2B3"/>
    <trip id="moto88" type="moto_motorcycle" depart="1490.86" departLane="best" departSpeed="max" from="A3B3" to="C1C2"/>
    <trip id="moto89" type="moto_motorcycle" depart="1507.80" departLane="best" from="C1C2" to="C2B2"/>
    <trip id="moto90" type="moto_motorcycle" depart="1524.74" departLane="best" from="D1D2" to="D1D0"/>
    <trip id="moto91" type="moto_motorcycle" depart="1541.69" departLane="best" departSpeed="max" from="E3D3" to="B1B2"/>
    <trip id="moto92" type="moto_motorcycle" depart="1558.63" departLane="best" from="C1B1" to="B3C3"/>
    <trip id="moto93" type="moto_motorcycle" depart="1575.57" departLane="best" departSpeed="max" from="D4D3" to="B3A3"/>
    <trip id="moto94" type="moto_motorcycle" depart="1592.51" departLane="best" from="B1C1" to="C1D1"/>
    <trip id="moto95" type="moto_motorcycle" depart="1609.45" departLane="best" from="C1C2" to="B3B2"/>
    <trip id="moto96" type="moto_motorcycle" depart="1626.39" departLane="best" from="B2B3" to="D3D4"/>
    <trip id="moto97" type="moto_motorcycle" depart="1643.34" departLane="best" from="C1D1" to="D2E2"/>
    <trip id="moto98" type="moto_motorcycle" depart="1660.28" departLane="best" from="C3B3" to="B1B0"/>
    <trip id="moto99" type="moto_motorcycle" depart="1677.22" departLane="best" departSpeed="max" from="E3D3" to="D2E2"/>
    <trip id="moto100" type="moto_motorcycle" depart="1694.16" departLane="best" departSpeed="max" from="E3D3" to="D3D4"/>
    <trip id="moto101" type="moto_motorcycle" depart="1711.10" departLane="best" departSpeed="max" from="D4D3" to="B2A2"/>
    <trip id="moto102" type="moto_motorcycle" depart="1728.04" departLane="best" from="C2C1" to="B2C2"/>
    <trip id="moto103" type="moto_motorcycle" depart="1744.99" departLane="best" from="C1B1" to="B1B0"/>
    <trip id="moto104" type="moto_motorcycle" depart="1761.93" departLane="best" departSpeed="max" from="C0C1" to="D3E3"/>
    <trip id="moto105" type="moto_motorcycle" depart="1778.87" departLane="best" from="B2C2" to="D2C2"/>
    <trip id="moto106" type="moto_motorcycle" depart="1795.81" departLane="best" from="C1D1" to="C1C2"/>
</routes>
