<?xml version="1.0" encoding="UTF-8"?>

<!-- generated on 06/08/20 12:26:00 by Eclipse SUMO duarouter Version 1.6.0
<configuration xmlns:xsi="http://www.w3.org/2001/XMLSchema-instance" xsi:noNamespaceSchemaLocation="http://sumo.dlr.de/xsd/duarouterConfiguration.xsd">

    <input>
        <net-file value="optimal.net.xml"/>
        <route-files value="optimal.bus.trips.xml"/>
    </input>

    <output>
        <output-file value="optimal.bus.trips.xml.tmp"/>
        <write-trips value="true"/>
    </output>

    <time>
        <begin value="0"/>
        <end value="1800.0"/>
    </time>

    <report>
        <no-warnings value="true"/>
        <ignore-errors value="true"/>
        <no-step-log value="true"/>
    </report>

</configuration>
-->

<routes xmlns:xsi="http://www.w3.org/2001/XMLSchema-instance" xsi:noNamespaceSchemaLocation="http://sumo.dlr.de/xsd/routes_file.xsd">
    <vType id="bus_bus" vClass="bus"/>
    <trip id="bus0" type="bus_bus" depart="0.00" departLane="best" departSpeed="max" from="D4D3" to="D2E2" via="B1B2"/>
    <trip id="bus1" type="bus_bus" depart="24.00" departLane="best" departSpeed="max" from="B0B1" to="B1B0" via="B3C3"/>
    <trip id="bus2" type="bus_bus" depart="48.00" departLane="best" departSpeed="max" from="C0C1" to="D3E3" via="B3B2"/>
    <trip id="bus3" type="bus_bus" depart="72.00" departLane="best" departSpeed="max" from="E1D1" to="D1E1" via="B1B2"/>
    <trip id="bus4" type="bus_bus" depart="96.00" departLane="best" departSpeed="max" from="A3B3" to="B1B0" via="D3D2"/>
    <trip id="bus5" type="bus_bus" depart="120.00" departLane="best" departSpeed="max" from="B0B1" to="D1D0" via="C3B3"/>
    <trip id="bus6" type="bus_bus" depart="144.00" departLane="best" departSpeed="max" from="E2D2" to="D1E1" via="B2C2"/>
    <trip id="bus7" type="bus_bus" depart="168.00" departLane="best" departSpeed="max" from="A1B1" to="B3B4" via="D1C1"/>
    <trip id="bus8" type="bus_bus" depart="192.00" departLane="best" departSpeed="max" from="E3D3" to="D3E3" via="B2C2"/>
    <trip id="bus9" type="bus_bus" depart="216.00" departLane="best" departSpeed="max" from="C0C1" to="D1D0" via="D3C3"/>
    <trip id="bus10" type="bus_bus" depart="240.00" departLane="best" departSpeed="max" from="B4B3" to="B3B4" via="B1B2"/>
    <trip id="bus11" type="bus_bus" depart="264.00" departLane="best" departSpeed="max" from="E3D3" to="D2E2" via="B3C3"/>
    <trip id="bus12" type="bus_bus" depart="288.00" departLane="best" departSpeed="max" from="B4B3" to="D2E2" via="B1B2"/>
    <trip id="bus13" type="bus_bus" depart="312.00" departLane="best" departSpeed="max" from="B0B1" to="D2E2" via="B3B2"/>
    <trip id="bus14" type="bus_bus" depart="336.00" departLane="best" departSpeed="max" from="A2B2" to="C3C4" via="D1D2"/>
    <trip id="bus15" type="bus_bus" depart="360.00" departLane="best" departSpeed="max" from="B0B1" to="D1D0" via="B3B2"/>
    <trip id="bus16" type="bus_bus" depart="384.00" departLane="best" departSpeed="max" from="D0D1" to="C1C0" via="D3C3"/>
    <trip id="bus17" type="bus_bus" depart="408.00" departLane="best" departSpeed="max" from="D4D3" to="D3D4" via="C1D1"/>
    <trip id="bus18" type="bus_bus" depart="432.00" departLane="best" departSpeed="max" from="D4D3" to="D1E1" via="B1C1"/>
    <trip id="bus19" type="bus_bus" depart="456.00" departLane="best" departSpeed="max" from="A1B1" to="B3A3" via="D2C2"/>
    <trip id="bus20" type="bus_bus" depart="480.00" departLane="best" departSpeed="max" from="C0C1" to="D2E2" via="B3C3"/>
    <trip id="bus21" type="bus_bus" depart="504.00" departLane="best" departSpeed="max" from="D4D3" to="B3B4" via="D1C1"/>
    <trip id="bus22" type="bus_bus" depart="528.00" departLane="best" departSpeed="max" from="B4B3" to="B1A1" via="D1D2"/>
    <trip id="bus23" type="bus_bus" depart="552.00" departLane="best" departSpeed="max" from="E2D2" to="B1B0" via="B3B2"/>
    <trip id="bus24" type="bus_bus" depart="576.00" departLane="best" departSpeed="max" from="C0C1" to="B1A1" via="D3C3"/>
    <trip id="bus25" type="bus_bus" depart="600.00" departLane="best" departSpeed="max" from="A1B1" to="B2A2" via="D2D1"/>
    <trip id="bus26" type="bus_bus" depart="624.00" departLane="best" departSpeed="max" from="A3B3" to="B1B0" via="D3C3"/>
    <trip id="bus27" type="bus_bus" depart="648.00" departLane="best" departSpeed="max" from="B4B3" to="C3C4" via="D1D2"/>
    <trip id="bus28" type="bus_bus" depart="672.00" departLane="best" departSpeed="max" from="D0D1" to="D1D0" via="B3C3"/>
    <trip id="bus29" type="bus_bus" depart="696.00" departLane="best" departSpeed="max" from="B4B3" to="D1E1" via="B1B2"/>
    <trip id="bus30" type="bus_bus" depart="720.00" departLane="best" departSpeed="max" from="A2B2" to="B1A1" via="D2D1"/>
    <trip id="bus31" type="bus_bus" depart="744.00" departLane="best" departSpeed="max" from="D4D3" to="B3B4" via="D1C1"/>
    <trip id="bus32" type="bus_bus" depart="768.00" departLane="best" departSpeed="max" from="C4C3" to="B1A1" via="D1D2"/>
    <trip id="bus33" type="bus_bus" depart="792.00" departLane="best" departSpeed="max" from="A2B2" to="B3B4" via="D1D2"/>
    <trip id="bus34" type="bus_bus" depart="816.00" departLane="best" departSpeed="max" from="A3B3" to="B1A1" via="D1D2"/>
    <trip id="bus35" type="bus_bus" depart="840.00" departLane="best" departSpeed="max" from="A2B2" to="D1D0" via="D3D2"/>
    <trip id="bus36" type="bus_bus" depart="864.00" departLane="best" departSpeed="max" from="B0B1" to="C1C0" via="D3D2"/>
    <trip id="bus37" type="bus_bus" depart="888.00" departLane="best" departSpeed="max" from="A3B3" to="B2A2" via="D3C3"/>
    <trip id="bus38" type="bus_bus" depart="912.00" departLane="best" departSpeed="max" from="D0D1" to="D3E3" via="B3C3"/>
    <trip id="bus39" type="bus_bus" depart="936.00" departLane="best" departSpeed="max" from="B4B3" to="C3C4" via="C1D1"/>
    <trip id="bus40" type="bus_bus" depart="960.00" departLane="best" departSpeed="max" from="D4D3" to="C3C4" via="B1B2"/>
    <trip id="bus41" type="bus_bus" depart="984.00" departLane="best" departSpeed="max" from="E3D3" to="D3E3" via="B3C3"/>
    <trip id="bus42" type="bus_bus" depart="1008.00" departLane="best" departSpeed="max" from="D0D1" to="B1B0" via="C3D3"/>
    <trip id="bus43" type="bus_bus" depart="1032.00" departLane="best" departSpeed="max" from="C4C3" to="C3C4" via="C1D1"/>
    <trip id="bus44" type="bus_bus" depart="1056.00" departLane="best" departSpeed="max" from="B0B1" to="D1E1" via="B3B2"/>
    <trip id="bus45" type="bus_bus" depart="1080.00" departLane="best" departSpeed="max" from="D4D3" to="C3C4" via="D1C1"/>
    <trip id="bus46" type="bus_bus" depart="1104.00" departLane="best" departSpeed="max" from="E1D1" to="D1E1" via="B2B1"/>
    <trip id="bus47" type="bus_bus" depart="1128.00" departLane="best" departSpeed="max" from="B0B1" to="D1D0" via="B3C3"/>
    <trip id="bus48" type="bus_bus" depart="1152.00" departLane="best" departSpeed="max" from="E3D3" to="D3D4" via="B1B2"/>
    <trip id="bus49" type="bus_bus" depart="1176.00" departLane="best" departSpeed="max" from="E3D3" to="D3E3" via="B2B1"/>
    <trip id="bus50" type="bus_bus" depart="1200.00" departLane="best" departSpeed="max" from="B4B3" to="C3C4" via="C1D1"/>
    <trip id="bus51" type="bus_bus" depart="1224.00" departLane="best" departSpeed="max" from="A3B3" to="B2A2" via="D2C2"/>
    <trip id="bus52" type="bus_bus" depart="1248.00" departLane="best" departSpeed="max" from="E1D1" to="D1E1" via="B3B2"/>
    <trip id="bus53" type="bus_bus" depart="1272.00" departLane="best" departSpeed="max" from="B4B3" to="C3C4" via="C1D1"/>
    <trip id="bus54" type="bus_bus" depart="1296.00" departLane="best" departSpeed="max" from="E3D3" to="D1D0" via="B3B2"/>
    <trip id="bus55" type="bus_bus" depart="1320.00" departLane="best" departSpeed="max" from="D4D3" to="D3E3" via="B1C1"/>
    <trip id="bus56" type="bus_bus" depart="1344.00" departLane="best" departSpeed="max" from="D4D3" to="D3D4" via="C1C2"/>
    <trip id="bus57" type="bus_bus" depart="1368.00" departLane="best" departSpeed="max" from="A2B2" to="B2A2" via="D2D1"/>
    <trip id="bus58" type="bus_bus" depart="1392.00" departLane="best" departSpeed="max" from="D0D1" to="D1D0" via="C3D3"/>
    <trip id="bus59" type="bus_bus" depart="1416.00" departLane="best" departSpeed="max" from="E1D1" to="D1E1" via="B3B2"/>
    <trip id="bus60" type="bus_bus" depart="1440.00" departLane="best" departSpeed="max" from="E2D2" to="D1D0" via="B3C3"/>
    <trip id="bus61" type="bus_bus" depart="1464.00" departLane="best" from="D1D2" to="D1D0" via="B3B2"/>
    <trip id="bus62" type="bus_bus" depart="1488.00" departLane="best" departSpeed="max" from="C0C1" to="B1B0" via="C3D3"/>
    <trip id="bus63" type="bus_bus" depart="1512.00" departLane="best" departSpeed="max" from="D4D3" to="B2A2" via="D1C1"/>
    <trip id="bus64" type="bus_bus" depart="1536.00" departLane="best" departSpeed="max" from="A3B3" to="B3A3" via="D1D2"/>
    <trip id="bus65" type="bus_bus" depart="1560.00" departLane="best" departSpeed="max" from="E1D1" to="C1D1" via="B3B2"/>
    <trip id="bus66" type="bus_bus" depart="1584.00" departLane="best" departSpeed="max" from="E2D2" to="D2E2" via="B2C2"/>
    <trip id="bus67" type="bus_bus" depart="1608.00" departLane="best" departSpeed="max" from="D0D1" to="D3E3" via="B3C3"/>
    <trip id="bus68" type="bus_bus" depart="1632.00" departLane="best" departSpeed="max" from="D0D1" to="D2E2" via="B3C3"/>
    <trip id="bus69" type="bus_bus" depart="1656.00" departLane="best" departSpeed="max" from="E2D2" to="D3E3" via="B1C1"/>
    <trip id="bus70" type="bus_bus" depart="1680.00" departLane="best" departSpeed="max" from="B4B3" to="C3C4" via="B1B2"/>
    <trip id="bus71" type="bus_bus" depart="1704.00" departLane="best" departSpeed="max" from="E2D2" to="D1E1" via="B2B3"/>
    <trip id="bus72" type="bus_bus" depart="1728.00" departLane="best" departSpeed="max" from="B0B1" to="B2A2" via="D3D2"/>
    <trip id="bus73" type="bus_bus" depart="1752.00" departLane="best" departSpeed="max" from="E2D2" to="D1E1" via="B2B1"/>
    <trip id="bus74" type="bus_bus" depart="1776.00" departLane="best" departSpeed="max" from="A3B3" to="B2A2" via="D2D3"/>
</routes>
