<?xml version="1.0" encoding="UTF-8"?>

<!-- generated on 06/23/20 13:19:28 by Eclipse SUMO duarouter Version 1.6.0
<configuration xmlns:xsi="http://www.w3.org/2001/XMLSchema-instance" xsi:noNamespaceSchemaLocation="http://sumo.dlr.de/xsd/duarouterConfiguration.xsd">

    <input>
        <net-file value="optimal.net.xml"/>
        <route-files value="optimal.bus.trips.xml"/>
    </input>

    <output>
        <output-file value="optimal.bus.rou.xml"/>
        <alternatives-output value="optimal.bus.rou.alt.xml"/>
    </output>

    <time>
        <begin value="0"/>
        <end value="1800.0"/>
    </time>

    <report>
        <no-warnings value="true"/>
        <ignore-errors value="true"/>
        <no-step-log value="true"/>
    </report>

</configuration>
-->

<routes xmlns:xsi="http://www.w3.org/2001/XMLSchema-instance" xsi:noNamespaceSchemaLocation="http://sumo.dlr.de/xsd/routes_file.xsd">
    <vType id="bus_bus" vClass="bus"/>
    <vehicle id="bus0" type="bus_bus" depart="0.00" departLane="best" departSpeed="max">
        <route edges="D4D3 D3D2 D2D1 D1C1 C1B1 B1B2 B2C2 C2D2 D2E2"/>
    </vehicle>
    <vehicle id="bus1" type="bus_bus" depart="22.00" departLane="best" departSpeed="max">
        <route edges="B0B1 B1B2 B2B3 B3C3 C3C2 C2B2 B2B1 B1B0"/>
    </vehicle>
    <vehicle id="bus2" type="bus_bus" depart="44.00" departLane="best" departSpeed="max">
        <route edges="C0C1 C1C2 C2C3 C3B3 B3B2 B2C2 C2C3 C3D3 D3E3"/>
    </vehicle>
    <vehicle id="bus3" type="bus_bus" depart="66.00" departLane="best" departSpeed="max">
        <route edges="E1D1 D1C1 C1B1 B1B2 B2C2 C2C1 C1D1 D1E1"/>
    </vehicle>
    <vehicle id="bus4" type="bus_bus" depart="88.00" departLane="best" departSpeed="max">
        <route edges="A3B3 B3C3 C3D3 D3D2 D2D1 D1C1 C1B1 B1B0"/>
    </vehicle>
    <vehicle id="bus5" type="bus_bus" depart="110.00" departLane="best" departSpeed="max">
        <route edges="B0B1 B1B2 B2C2 C2C3 C3B3 B3B2 B2C2 C2D2 D2D1 D1D0"/>
    </vehicle>
    <vehicle id="bus6" type="bus_bus" depart="132.00" departLane="best" departSpeed="max">
        <route edges="E2D2 D2D1 D1C1 C1B1 B1B2 B2C2 C2D2 D2D1 D1E1"/>
    </vehicle>
    <vehicle id="bus7" type="bus_bus" depart="154.00" departLane="best" departSpeed="max">
        <route edges="A1B1 B1B2 B2C2 C2D2 D2D1 D1C1 C1B1 B1B2 B2B3 B3B4"/>
    </vehicle>
    <vehicle id="bus8" type="bus_bus" depart="176.00" departLane="best" departSpeed="max">
        <route edges="E3D3 D3C3 C3B3 B3B2 B2C2 C2C3 C3D3 D3E3"/>
    </vehicle>
    <vehicle id="bus9" type="bus_bus" depart="198.00" departLane="best" departSpeed="max">
        <route edges="C0C1 C1C2 C2D2 D2D3 D3C3 C3C2 C2D2 D2D1 D1D0"/>
    </vehicle>
    <vehicle id="bus10" type="bus_bus" depart="220.00" departLane="best" departSpeed="max">
        <route edges="B4B3 B3C3 C3C2 C2C1 C1B1 B1B2 B2B3 B3B4"/>
    </vehicle>
    <vehicle id="bus11" type="bus_bus" depart="242.00" departLane="best" departSpeed="max">
        <route edges="E3D3 D3D2 D2C2 C2B2 B2B3 B3C3 C3D3 D3D2 D2E2"/>
    </vehicle>
    <vehicle id="bus12" type="bus_bus" depart="264.00" departLane="best" departSpeed="max">
        <route edges="B4B3 B3C3 C3C2 C2C1 C1B1 B1B2 B2C2 C2D2 D2E2"/>
    </vehicle>
    <vehicle id="bus13" type="bus_bus" depart="286.00" departLane="best" departSpeed="max">
        <route edges="B0B1 B1B2 B2C2 C2C3 C3B3 B3B2 B2C2 C2D2 D2E2"/>
    </vehicle>
    <vehicle id="bus14" type="bus_bus" depart="308.00" departLane="best" departSpeed="max">
        <route edges="A2B2 B2C2 C2C1 C1D1 D1D2 D2C2 C2C3 C3C4"/>
    </vehicle>
    <vehicle id="bus15" type="bus_bus" depart="330.00" departLane="best" departSpeed="max">
        <route edges="B0B1 B1B2 B2C2 C2C3 C3B3 B3B2 B2C2 C2D2 D2D1 D1D0"/>
    </vehicle>
    <vehicle id="bus16" type="bus_bus" depart="352.00" departLane="best" departSpeed="max">
        <route edges="D0D1 D1D2 D2D3 D3C3 C3C2 C2C1 C1C0"/>
    </vehicle>
    <vehicle id="bus17" type="bus_bus" depart="374.00" departLane="best" departSpeed="max">
        <route edges="D4D3 D3D2 D2C2 C2C1 C1D1 D1D2 D2D3 D3D4"/>
    </vehicle>
    <vehicle id="bus18" type="bus_bus" depart="396.00" departLane="best" departSpeed="max">
        <route edges="D4D3 D3D2 D2C2 C2B2 B2B1 B1C1 C1D1 D1E1"/>
    </vehicle>
    <vehicle id="bus19" type="bus_bus" depart="418.00" departLane="best" departSpeed="max">
        <route edges="A1B1 B1C1 C1D1 D1D2 D2C2 C2B2 B2B3 B3A3"/>
    </vehicle>
    <vehicle id="bus20" type="bus_bus" depart="440.00" departLane="best" departSpeed="max">
        <route edges="C0C1 C1B1 B1B2 B2B3 B3C3 C3D3 D3D2 D2E2"/>
    </vehicle>
    <vehicle id="bus21" type="bus_bus" depart="462.00" departLane="best" departSpeed="max">
        <route edges="D4D3 D3D2 D2D1 D1C1 C1B1 B1B2 B2B3 B3B4"/>
    </vehicle>
    <vehicle id="bus22" type="bus_bus" depart="484.00" departLane="best" departSpeed="max">
        <route edges="B4B3 B3B2 B2B1 B1C1 C1D1 D1D2 D2C2 C2C1 C1B1 B1A1"/>
    </vehicle>
    <vehicle id="bus23" type="bus_bus" depart="506.00" departLane="best" departSpeed="max">
        <route edges="E2D2 D2C2 C2C3 C3B3 B3B2 B2B1 B1B0"/>
    </vehicle>
    <vehicle id="bus24" type="bus_bus" depart="528.00" departLane="best" departSpeed="max">
        <route edges="C0C1 C1C2 C2D2 D2D3 D3C3 C3C2 C2C1 C1B1 B1A1"/>
    </vehicle>
    <vehicle id="bus25" type="bus_bus" depart="550.00" departLane="best" departSpeed="max">
        <route edges="A1B1 B1B2 B2C2 C2D2 D2D1 D1C1 C1C2 C2B2 B2A2"/>
    </vehicle>
    <vehicle id="bus26" type="bus_bus" depart="572.00" departLane="best" departSpeed="max">
        <route edges="A3B3 B3C3 C3C2 C2D2 D2D3 D3C3 C3B3 B3B2 B2B1 B1B0"/>
    </vehicle>
    <vehicle id="bus27" type="bus_bus" depart="594.00" departLane="best" departSpeed="max">
        <route edges="B4B3 B3B2 B2B1 B1C1 C1D1 D1D2 D2C2 C2C3 C3C4"/>
    </vehicle>
    <vehicle id="bus28" type="bus_bus" depart="616.00" departLane="best" departSpeed="max">
        <route edges="D0D1 D1C1 C1B1 B1B2 B2B3 B3C3 C3D3 D3D2 D2D1 D1D0"/>
    </vehicle>
    <vehicle id="bus29" type="bus_bus" depart="638.00" departLane="best" departSpeed="max">
        <route edges="B4B3 B3C3 C3C2 C2C1 C1B1 B1B2 B2C2 C2C1 C1D1 D1E1"/>
    </vehicle>
    <vehicle id="bus30" type="bus_bus" depart="660.00" departLane="best" departSpeed="max">
        <route edges="A2B2 B2C2 C2D2 D2D1 D1C1 C1B1 B1A1"/>
    </vehicle>
    <vehicle id="bus31" type="bus_bus" depart="682.00" departLane="best" departSpeed="max">
        <route edges="D4D3 D3D2 D2D1 D1C1 C1B1 B1B2 B2B3 B3B4"/>
    </vehicle>
    <vehicle id="bus32" type="bus_bus" depart="704.00" departLane="best" departSpeed="max">
        <route edges="C4C3 C3C2 C2C1 C1D1 D1D2 D2C2 C2C1 C1B1 B1A1"/>
    </vehicle>
    <vehicle id="bus33" type="bus_bus" depart="726.00" departLane="best" departSpeed="max">
        <route edges="A2B2 B2C2 C2C1 C1D1 D1D2 D2C2 C2B2 B2B3 B3B4"/>
    </vehicle>
    <vehicle id="bus34" type="bus_bus" depart="748.00" departLane="best" departSpeed="max">
        <route edges="A3B3 B3C3 C3C2 C2C1 C1D1 D1D2 D2C2 C2C1 C1B1 B1A1"/>
    </vehicle>
    <vehicle id="bus35" type="bus_bus" depart="770.00" departLane="best" departSpeed="max">
        <route edges="A2B2 B2B3 B3C3 C3D3 D3D2 D2D1 D1D0"/>
    </vehicle>
    <vehicle id="bus36" type="bus_bus" depart="792.00" departLane="best" departSpeed="max">
        <route edges="B0B1 B1B2 B2B3 B3C3 C3D3 D3D2 D2D1 D1C1 C1C0"/>
    </vehicle>
    <vehicle id="bus37" type="bus_bus" depart="814.00" departLane="best" departSpeed="max">
        <route edges="A3B3 B3C3 C3C2 C2D2 D2D3 D3C3 C3C2 C2B2 B2A2"/>
    </vehicle>
    <vehicle id="bus38" type="bus_bus" depart="836.00" departLane="best" departSpeed="max">
        <route edges="D0D1 D1C1 C1B1 B1B2 B2B3 B3C3 C3D3 D3E3"/>
    </vehicle>
    <vehicle id="bus39" type="bus_bus" depart="858.00" departLane="best" departSpeed="max">
        <route edges="B4B3 B3B2 B2B1 B1C1 C1D1 D1D2 D2C2 C2C3 C3C4"/>
    </vehicle>
    <vehicle id="bus40" type="bus_bus" depart="880.00" departLane="best" departSpeed="max">
        <route edges="D4D3 D3D2 D2D1 D1C1 C1B1 B1B2 B2B3 B3C3 C3C4"/>
    </vehicle>
    <vehicle id="bus41" type="bus_bus" depart="902.00" departLane="best" departSpeed="max">
        <route edges="E3D3 D3D2 D2C2 C2B2 B2B3 B3C3 C3D3 D3E3"/>
    </vehicle>
    <vehicle id="bus42" type="bus_bus" depart="924.00" departLane="best" departSpeed="max">
        <route edges="D0D1 D1C1 C1C2 C2C3 C3D3 D3D2 D2D1 D1C1 C1B1 B1B0"/>
    </vehicle>
    <vehicle id="bus43" type="bus_bus" depart="946.00" departLane="best" departSpeed="max">
        <route edges="C4C3 C3C2 C2C1 C1D1 D1D2 D2C2 C2C3 C3C4"/>
    </vehicle>
    <vehicle id="bus44" type="bus_bus" depart="968.00" departLane="best" departSpeed="max">
        <route edges="B0B1 B1B2 B2C2 C2C3 C3B3 B3B2 B2B1 B1C1 C1D1 D1E1"/>
    </vehicle>
    <vehicle id="bus45" type="bus_bus" depart="990.00" departLane="best" departSpeed="max">
        <route edges="D4D3 D3D2 D2D1 D1C1 C1C2 C2C3 C3C4"/>
    </vehicle>
    <vehicle id="bus46" type="bus_bus" depart="1012.00" departLane="best" departSpeed="max">
        <route edges="E1D1 D1C1 C1C2 C2B2 B2B1 B1C1 C1D1 D1E1"/>
    </vehicle>
    <vehicle id="bus47" type="bus_bus" depart="1034.00" departLane="best" departSpeed="max">
        <route edges="B0B1 B1B2 B2B3 B3C3 C3D3 D3D2 D2D1 D1D0"/>
    </vehicle>
    <vehicle id="bus48" type="bus_bus" depart="1056.00" departLane="best" departSpeed="max">
        <route edges="E3D3 D3D2 D2D1 D1C1 C1B1 B1B2 B2B3 B3C3 C3D3 D3D4"/>
    </vehicle>
    <vehicle id="bus49" type="bus_bus" depart="1078.00" departLane="best" departSpeed="max">
        <route edges="E3D3 D3C3 C3B3 B3B2 B2B1 B1C1 C1C2 C2C3 C3D3 D3E3"/>
    </vehicle>
    <vehicle id="bus50" type="bus_bus" depart="1100.00" departLane="best" departSpeed="max">
        <route edges="B4B3 B3B2 B2B1 B1C1 C1D1 D1D2 D2C2 C2C3 C3C4"/>
    </vehicle>
    <vehicle id="bus51" type="bus_bus" depart="1122.00" departLane="best" departSpeed="max">
        <route edges="A3B3 B3C3 C3D3 D3D2 D2C2 C2B2 B2A2"/>
    </vehicle>
    <vehicle id="bus52" type="bus_bus" depart="1144.00" departLane="best" departSpeed="max">
        <route edges="E1D1 D1C1 C1C2 C2C3 C3B3 B3B2 B2B1 B1C1 C1D1 D1E1"/>
    </vehicle>
    <vehicle id="bus53" type="bus_bus" depart="1166.00" departLane="best" departSpeed="max">
        <route edges="B4B3 B3B2 B2B1 B1C1 C1D1 D1D2 D2C2 C2C3 C3C4"/>
    </vehicle>
    <vehicle id="bus54" type="bus_bus" depart="1188.00" departLane="best" departSpeed="max">
        <route edges="E3D3 D3C3 C3B3 B3B2 B2C2 C2D2 D2D1 D1D0"/>
    </vehicle>
    <vehicle id="bus55" type="bus_bus" depart="1210.00" departLane="best" departSpeed="max">
        <route edges="D4D3 D3D2 D2C2 C2B2 B2B1 B1C1 C1C2 C2C3 C3D3 D3E3"/>
    </vehicle>
    <vehicle id="bus56" type="bus_bus" depart="1232.00" departLane="best" departSpeed="max">
        <route edges="D4D3 D3D2 D2D1 D1C1 C1C2 C2C3 C3D3 D3D4"/>
    </vehicle>
    <vehicle id="bus57" type="bus_bus" depart="1254.00" departLane="best" departSpeed="max">
        <route edges="A2B2 B2C2 C2D2 D2D1 D1C1 C1C2 C2B2 B2A2"/>
    </vehicle>
    <vehicle id="bus58" type="bus_bus" depart="1276.00" departLane="best" departSpeed="max">
        <route edges="D0D1 D1C1 C1C2 C2C3 C3D3 D3D2 D2D1 D1D0"/>
    </vehicle>
    <vehicle id="bus59" type="bus_bus" depart="1298.00" departLane="best" departSpeed="max">
        <route edges="E1D1 D1C1 C1C2 C2C3 C3B3 B3B2 B2B1 B1C1 C1D1 D1E1"/>
    </vehicle>
    <vehicle id="bus60" type="bus_bus" depart="1320.00" departLane="best" departSpeed="max">
        <route edges="E2D2 D2C2 C2B2 B2B3 B3C3 C3D3 D3D2 D2D1 D1D0"/>
    </vehicle>
    <vehicle id="bus61" type="bus_bus" depart="1342.00" departLane="best">
        <route edges="D1D2 D2D3 D3C3 C3B3 B3B2 B2C2 C2D2 D2D1 D1D0"/>
    </vehicle>
    <vehicle id="bus62" type="bus_bus" depart="1364.00" departLane="best" departSpeed="max">
        <route edges="C0C1 C1C2 C2C3 C3D3 D3D2 D2D1 D1C1 C1B1 B1B0"/>
    </vehicle>
    <vehicle id="bus63" type="bus_bus" depart="1386.00" departLane="best" departSpeed="max">
        <route edges="D4D3 D3D2 D2D1 D1C1 C1B1 B1B2 B2A2"/>
    </vehicle>
    <vehicle id="bus64" type="bus_bus" depart="1408.00" departLane="best" departSpeed="max">
        <route edges="A3B3 B3C3 C3C2 C2C1 C1D1 D1D2 D2D3 D3C3 C3B3 B3A3"/>
    </vehicle>
    <vehicle id="bus65" type="bus_bus" depart="1430.00" departLane="best" departSpeed="max">
        <route edges="E1D1 D1C1 C1C2 C2C3 C3B3 B3B2 B2B1 B1C1 C1D1"/>
    </vehicle>
    <vehicle id="bus66" type="bus_bus" depart="1452.00" departLane="best" departSpeed="max">
        <route edges="E2D2 D2D1 D1C1 C1B1 B1B2 B2C2 C2D2 D2E2"/>
    </vehicle>
    <vehicle id="bus67" type="bus_bus" depart="1474.00" departLane="best" departSpeed="max">
        <route edges="D0D1 D1C1 C1B1 B1B2 B2B3 B3C3 C3D3 D3E3"/>
    </vehicle>
    <vehicle id="bus68" type="bus_bus" depart="1496.00" departLane="best" departSpeed="max">
        <route edges="D0D1 D1C1 C1B1 B1B2 B2B3 B3C3 C3D3 D3D2 D2E2"/>
    </vehicle>
    <vehicle id="bus69" type="bus_bus" depart="1518.00" departLane="best" departSpeed="max">
        <route edges="E2D2 D2C2 C2B2 B2B1 B1C1 C1C2 C2C3 C3D3 D3E3"/>
    </vehicle>
    <vehicle id="bus70" type="bus_bus" depart="1540.00" departLane="best" departSpeed="max">
        <route edges="B4B3 B3C3 C3C2 C2C1 C1B1 B1B2 B2B3 B3C3 C3C4"/>
    </vehicle>
    <vehicle id="bus71" type="bus_bus" depart="1562.00" departLane="best" departSpeed="max">
        <route edges="E2D2 D2C2 C2B2 B2B3 B3C3 C3D3 D3D2 D2D1 D1E1"/>
    </vehicle>
    <vehicle id="bus72" type="bus_bus" depart="1584.00" departLane="best" departSpeed="max">
        <route edges="B0B1 B1B2 B2B3 B3C3 C3D3 D3D2 D2C2 C2B2 B2A2"/>
    </vehicle>
    <vehicle id="bus73" type="bus_bus" depart="1606.00" departLane="best" departSpeed="max">
        <route edges="E2D2 D2C2 C2B2 B2B1 B1C1 C1D1 D1E1"/>
    </vehicle>
    <vehicle id="bus74" type="bus_bus" depart="1628.00" departLane="best" departSpeed="max">
        <route edges="A3B3 B3C3 C3C2 C2D2 D2D3 D3C3 C3C2 C2B2 B2A2"/>
    </vehicle>
    <vehicle id="bus75" type="bus_bus" depart="1650.00" departLane="best" departSpeed="max">
        <route edges="B0B1 B1B2 B2B3 B3C3 C3C2 C2B2 B2B1 B1B0"/>
    </vehicle>
    <vehicle id="bus76" type="bus_bus" depart="1672.00" departLane="best" departSpeed="max">
        <route edges="A3B3 B3C3 C3C2 C2C1 C1D1 D1D2 D2C2 C2B2 B2A2"/>
    </vehicle>
    <vehicle id="bus77" type="bus_bus" depart="1694.00" departLane="best" departSpeed="max">
        <route edges="B0B1 B1B2 B2C2 C2C3 C3B3 B3B2 B2C2 C2D2 D2E2"/>
    </vehicle>
    <vehicle id="bus78" type="bus_bus" depart="1716.00" departLane="best" departSpeed="max">
        <route edges="D0D1 D1C1 C1B1 B1B2 B2B3 B3C3 C3C2 C2C1 C1C0"/>
    </vehicle>
    <vehicle id="bus79" type="bus_bus" depart="1738.00" departLane="best" departSpeed="max">
        <route edges="A2B2 B2B3 B3C3 C3D3 D3D2 D2D1 D1D0"/>
    </vehicle>
    <vehicle id="bus80" type="bus_bus" depart="1760.00" departLane="best" departSpeed="max">
        <route edges="E1D1 D1C1 C1B1 B1B2 B2B3 B3C3 C3D3 D3D2 D2D1 D1E1"/>
    </vehicle>
    <vehicle id="bus81" type="bus_bus" depart="1782.00" departLane="best" departSpeed="max">
        <route edges="E3D3 D3D2 D2C2 C2B2 B2B3 B3C3 C3C2 C2C1 C1C0"/>
    </vehicle>
</routes>
