<?xml version="1.0" encoding="UTF-8"?>

<!-- generated on 05/27/20 20:29:11 by Eclipse SUMO duarouter Version 1.6.0
<configuration xmlns:xsi="http://www.w3.org/2001/XMLSchema-instance" xsi:noNamespaceSchemaLocation="http://sumo.dlr.de/xsd/duarouterConfiguration.xsd">

    <input>
        <net-file value="optimal.net.xml"/>
        <route-files value="optimal.pedestrian.trips.xml"/>
    </input>

    <output>
        <output-file value="optimal.pedestrian.rou.xml"/>
        <alternatives-output value="optimal.pedestrian.rou.alt.xml"/>
    </output>

    <time>
        <begin value="0"/>
        <end value="1800.0"/>
    </time>

    <report>
        <no-warnings value="true"/>
        <ignore-errors value="true"/>
        <no-step-log value="true"/>
    </report>

</configuration>
-->

<routes xmlns:xsi="http://www.w3.org/2001/XMLSchema-instance" xsi:noNamespaceSchemaLocation="http://sumo.dlr.de/xsd/routes_file.xsd">
    <vType id="ped_pedestrian" vClass="pedestrian"/>
    <person id="ped0" type="ped_pedestrian" depart="0.00">
        <walk edges="C4C3 C3C4 C3B3 B3B2 B2A2 A2B2"/>
    </person>
    <person id="ped1" type="ped_pedestrian" depart="3.00">
        <walk edges="B3B2 B2B3"/>
    </person>
    <person id="ped2" type="ped_pedestrian" depart="6.00">
        <walk edges="D1E1 D1C1"/>
    </person>
    <person id="ped3" type="ped_pedestrian" depart="9.00">
        <walk edges="D3D4 C3D3 C3B3 B3B2 B2B1 B1A1"/>
    </person>
    <person id="ped4" type="ped_pedestrian" depart="12.00">
        <walk edges="C1C2 C2B2 B2A2 A2B2"/>
    </person>
    <person id="ped5" type="ped_pedestrian" depart="15.00">
        <walk edges="B2B3 C2B2 C2C3"/>
    </person>
    <person id="ped6" type="ped_pedestrian" depart="18.00">
        <walk edges="A2B2 B2A2 B2B1"/>
    </person>
    <person id="ped7" type="ped_pedestrian" depart="21.00">
        <walk edges="D0D1 D1D0 D1C1 C1C2 C2C3 C3B3"/>
    </person>
    <person id="ped8" type="ped_pedestrian" depart="24.00">
        <walk edges="B2B3 B3C3 C3C4"/>
    </person>
    <person id="ped9" type="ped_pedestrian" depart="27.00">
        <walk edges="D2D3 C2D2 C2B2 B2B1 B1A1 A1B1"/>
    </person>
    <person id="ped10" type="ped_pedestrian" depart="30.00">
        <walk edges="D2D3 D1D2 D1D0"/>
    </person>
    <person id="ped11" type="ped_pedestrian" depart="33.00">
        <walk edges="B4B3 B3B4 B3B2 B2B1 B1C1"/>
    </person>
    <person id="ped12" type="ped_pedestrian" depart="36.00">
        <walk edges="E1D1 D1E1 D1C1 C1B1 B1B2 B3B2 B3B4 B4B3"/>
    </person>
    <person id="ped13" type="ped_pedestrian" depart="39.00">
        <walk edges="B1A1"/>
    </person>
    <person id="ped14" type="ped_pedestrian" depart="42.00">
        <walk edges="D3C3 C3C4"/>
    </person>
    <person id="ped15" type="ped_pedestrian" depart="45.00">
        <walk edges="D2D3 D1D2 D1E1"/>
    </person>
    <person id="ped16" type="ped_pedestrian" depart="48.00">
        <walk edges="C2D2 D2E2 E2D2"/>
    </person>
    <person id="ped17" type="ped_pedestrian" depart="51.00">
        <walk edges="C1B1 C2C1 C2C3 C3B3"/>
    </person>
    <person id="ped18" type="ped_pedestrian" depart="54.00">
        <walk edges="D2E2 D3D2 C3D3"/>
    </person>
    <person id="ped19" type="ped_pedestrian" depart="57.00">
        <walk edges="D3D2 C3D3 C3C2"/>
    </person>
    <person id="ped20" type="ped_pedestrian" depart="60.00">
        <walk edges="D1D0 C1D1 C1B1 B1B2 B2B3 B3A3 A3B3"/>
    </person>
    <person id="ped21" type="ped_pedestrian" depart="63.00">
        <walk edges="B2B3 B3B2"/>
    </person>
    <person id="ped22" type="ped_pedestrian" depart="66.00">
        <walk edges="B0B1 B1B0 B1B2 B2C2"/>
    </person>
    <person id="ped23" type="ped_pedestrian" depart="69.00">
        <walk edges="B1A1 B2B1 B3B2"/>
    </person>
    <person id="ped24" type="ped_pedestrian" depart="72.00">
        <walk edges="C4C3 C3C4 C3C2 C2C1 C1C0 C0C1"/>
    </person>
    <person id="ped25" type="ped_pedestrian" depart="75.00">
        <walk edges="C0C1 C1C0 C1B1 B1B2 B2B3"/>
    </person>
    <person id="ped26" type="ped_pedestrian" depart="78.00">
        <walk edges="B3A3 C3B3 C3D3 D3D4 D4D3"/>
    </person>
    <person id="ped27" type="ped_pedestrian" depart="81.00">
        <walk edges="D0D1 D1D0 D1D2 D2D3 C3D3"/>
    </person>
    <person id="ped28" type="ped_pedestrian" depart="84.00">
        <walk edges="B2A2 C2B2 C2D2 D1D2"/>
    </person>
    <person id="ped29" type="ped_pedestrian" depart="87.00">
        <walk edges="B1C1 C1B1"/>
    </person>
    <person id="ped30" type="ped_pedestrian" depart="90.00">
        <walk edges="E3D3 D3E3 D3C3 C3C4 C4C3"/>
    </person>
    <person id="ped31" type="ped_pedestrian" depart="93.00">
        <walk edges="C3B3 C2C3 C2C1 D1C1"/>
    </person>
    <person id="ped32" type="ped_pedestrian" depart="96.00">
        <walk edges="D3C3 D2D3 D2D1"/>
    </person>
    <person id="ped33" type="ped_pedestrian" depart="99.00">
        <walk edges="B2B3 B2A2 A2B2"/>
    </person>
    <person id="ped34" type="ped_pedestrian" depart="102.00">
        <walk edges="B3C3 B3A3"/>
    </person>
    <person id="ped35" type="ped_pedestrian" depart="105.00">
        <walk edges="B2B3 B1B2 B1C1 C1D1 D1E1 E1D1"/>
    </person>
    <person id="ped36" type="ped_pedestrian" depart="108.00">
        <walk edges="D3D4 C3D3 B3C3"/>
    </person>
    <person id="ped37" type="ped_pedestrian" depart="111.00">
        <walk edges="D0D1 D1D0 D1C1 C1B1"/>
    </person>
    <person id="ped38" type="ped_pedestrian" depart="114.00">
        <walk edges="D3E3 C3D3 C3C2 C2B2"/>
    </person>
    <person id="ped39" type="ped_pedestrian" depart="117.00">
        <walk edges="B3A3 B2B3 B2C2"/>
    </person>
    <person id="ped40" type="ped_pedestrian" depart="120.00">
        <walk edges="C3B3 B3A3"/>
    </person>
    <person id="ped41" type="ped_pedestrian" depart="123.00">
        <walk edges="C3C4 D3C3 D3E3"/>
    </person>
    <person id="ped42" type="ped_pedestrian" depart="126.00">
        <walk edges="C1C0 B1C1 B1B2 B2B3"/>
    </person>
    <person id="ped43" type="ped_pedestrian" depart="129.00">
        <walk edges="E3D3 D3E3 D3C3 C2C3"/>
    </person>
    <person id="ped44" type="ped_pedestrian" depart="132.00">
        <walk edges="B1A1 B2B1 B2B3 B3A3 A3B3"/>
    </person>
    <person id="ped45" type="ped_pedestrian" depart="135.00">
        <walk edges="B1B0 B2B1 B2B3 B3C3 C3C4 C4C3"/>
    </person>
    <person id="ped46" type="ped_pedestrian" depart="138.00">
        <walk edges="D2D3 C2D2 C1C2"/>
    </person>
    <person id="ped47" type="ped_pedestrian" depart="141.00">
        <walk edges="B0B1 B1B0 C1B1"/>
    </person>
    <person id="ped48" type="ped_pedestrian" depart="144.00">
        <walk edges="E3D3 D3E3 D3D2 C2D2"/>
    </person>
    <person id="ped49" type="ped_pedestrian" depart="147.00">
        <walk edges="E2D2 D2E2 D3D2"/>
    </person>
    <person id="ped50" type="ped_pedestrian" depart="150.00">
        <walk edges="A1B1 B1A1 B1C1 C1D1 D1D2"/>
    </person>
    <person id="ped51" type="ped_pedestrian" depart="153.00">
        <walk edges="D1C1 D2D1 C2D2"/>
    </person>
    <person id="ped52" type="ped_pedestrian" depart="156.00">
        <walk edges="B3A3 C3B3 C3C4 C4C3"/>
    </person>
    <person id="ped53" type="ped_pedestrian" depart="159.00">
        <walk edges="B1B0 C1B1 C1C2"/>
    </person>
    <person id="ped54" type="ped_pedestrian" depart="162.00">
        <walk edges="C1D1 D1E1 E1D1"/>
    </person>
    <person id="ped55" type="ped_pedestrian" depart="165.00">
        <walk edges="D3D4 C3D3 C3B3 B3A3"/>
    </person>
    <person id="ped56" type="ped_pedestrian" depart="168.00">
        <walk edges="C2C3 B2C2 B2A2"/>
    </person>
    <person id="ped57" type="ped_pedestrian" depart="171.00">
        <walk edges="D3E3 D3D2"/>
    </person>
    <person id="ped58" type="ped_pedestrian" depart="174.00">
        <walk edges="B3B4 C3B3 C3C4 C4C3"/>
    </person>
    <person id="ped59" type="ped_pedestrian" depart="177.00">
        <walk edges="C3D3 C2C3 C2C1 B1C1"/>
    </person>
    <person id="ped60" type="ped_pedestrian" depart="180.00">
        <walk edges="D2C2 C2D2"/>
    </person>
    <person id="ped61" type="ped_pedestrian" depart="183.00">
        <walk edges="D2D1 C2D2"/>
    </person>
    <person id="ped62" type="ped_pedestrian" depart="186.00">
        <walk edges="A1B1 B1A1 B1B2 B2B3 B3C3"/>
    </person>
    <person id="ped63" type="ped_pedestrian" depart="189.00">
        <walk edges="A1B1 B1A1 B1B2 B2B3 B3C3 D3C3 D3D4 D4D3"/>
    </person>
    <person id="ped64" type="ped_pedestrian" depart="192.00">
        <walk edges="D3D4 D2D3 D2E2"/>
    </person>
    <person id="ped65" type="ped_pedestrian" depart="195.00">
        <walk edges="B3B4 B3A3 A3B3"/>
    </person>
    <person id="ped66" type="ped_pedestrian" depart="198.00">
        <walk edges="D3D4 D2D3 D2D1 D1E1 E1D1"/>
    </person>
    <person id="ped67" type="ped_pedestrian" depart="201.00">
        <walk edges="B1A1 C1B1 C2C1"/>
    </person>
    <person id="ped68" type="ped_pedestrian" depart="204.00">
        <walk edges="B0B1 B1B0 B1B2 B2C2 D2C2"/>
    </person>
    <person id="ped69" type="ped_pedestrian" depart="207.00">
        <walk edges="D2C2 C2B2 B1B2"/>
    </person>
    <person id="ped70" type="ped_pedestrian" depart="210.00">
        <walk edges="C2B2 C3C2 C3B3"/>
    </person>
    <person id="ped71" type="ped_pedestrian" depart="213.00">
        <walk edges="B3A3 C3B3 C3D3 D3D2"/>
    </person>
    <person id="ped72" type="ped_pedestrian" depart="216.00">
        <walk edges="C1C2 C2B2 B2B3"/>
    </person>
    <person id="ped73" type="ped_pedestrian" depart="219.00">
        <walk edges="C2D2 D2D1 D1E1"/>
    </person>
    <person id="ped74" type="ped_pedestrian" depart="222.00">
        <walk edges="B2B1 B3B2 B3B4"/>
    </person>
    <person id="ped75" type="ped_pedestrian" depart="225.00">
        <walk edges="E3D3 D3E3 D3D2 D2D1 D1D0 D0D1"/>
    </person>
    <person id="ped76" type="ped_pedestrian" depart="228.00">
        <walk edges="C1D1 C2C1 C2C3"/>
    </person>
    <person id="ped77" type="ped_pedestrian" depart="231.00">
        <walk edges="B1B0 B2B1 B2B3"/>
    </person>
    <person id="ped78" type="ped_pedestrian" depart="234.00">
        <walk edges="B4B3 B3B4 B3C3 C3C4"/>
    </person>
    <person id="ped79" type="ped_pedestrian" depart="237.00">
        <walk edges="B2C2 B2B3"/>
    </person>
    <person id="ped80" type="ped_pedestrian" depart="240.00">
        <walk edges="B0B1 B1B0 B1B2 B2B3 B3C3 C3C4 C4C3"/>
    </person>
    <person id="ped81" type="ped_pedestrian" depart="243.00">
        <walk edges="B2B3 B3C3 C3D3 D3E3"/>
    </person>
    <person id="ped82" type="ped_pedestrian" depart="246.00">
        <walk edges="D3D2 D2C2 C2B2 B2B1 B1B0 B0B1"/>
    </person>
    <person id="ped83" type="ped_pedestrian" depart="249.00">
        <walk edges="B2C2 C2C1 D1C1"/>
    </person>
    <person id="ped84" type="ped_pedestrian" depart="252.00">
        <walk edges="B2B3 B1B2"/>
    </person>
    <person id="ped85" type="ped_pedestrian" depart="255.00">
        <walk edges="D4D3 D3D4 D3C3 C3C2"/>
    </person>
    <person id="ped86" type="ped_pedestrian" depart="258.00">
        <walk edges="C2B2 D2C2 D2D1"/>
    </person>
    <person id="ped87" type="ped_pedestrian" depart="261.00">
        <walk edges="D2D3 C2D2 C2B2 B2B1"/>
    </person>
    <person id="ped88" type="ped_pedestrian" depart="264.00">
        <walk edges="B1A1 C1B1 C1C2"/>
    </person>
    <person id="ped89" type="ped_pedestrian" depart="267.00">
        <walk edges="C1C2 C2B2"/>
    </person>
    <person id="ped90" type="ped_pedestrian" depart="270.00">
        <walk edges="D1D2 D1C1"/>
    </person>
    <person id="ped91" type="ped_pedestrian" depart="273.00">
        <walk edges="E3D3 D3E3 D3C3 C3B3 B3B2 B1B2 B1A1"/>
    </person>
    <person id="ped92" type="ped_pedestrian" depart="276.00">
        <walk edges="C1C0 B1C1 B1B2 B2B3 B3B4 B4B3"/>
    </person>
    <person id="ped93" type="ped_pedestrian" depart="279.00">
        <walk edges="D3D2 D2C2 B2C2"/>
    </person>
    <person id="ped94" type="ped_pedestrian" depart="282.00">
        <walk edges="B2B1 B1C1 C1D1"/>
    </person>
    <person id="ped95" type="ped_pedestrian" depart="285.00">
        <walk edges="C1C2 C2B2 B3B2"/>
    </person>
    <person id="ped96" type="ped_pedestrian" depart="288.00">
        <walk edges="B2C2 C2C3 C3D3 D3D4 D4D3"/>
    </person>
    <person id="ped97" type="ped_pedestrian" depart="291.00">
        <walk edges="C1D1 D1D2 D3D2"/>
    </person>
    <person id="ped98" type="ped_pedestrian" depart="294.00">
        <walk edges="C3B3 B3A3 A3B3"/>
    </person>
    <person id="ped99" type="ped_pedestrian" depart="297.00">
        <walk edges="E3D3 D3E3 D3C3"/>
    </person>
    <person id="ped100" type="ped_pedestrian" depart="300.00">
        <walk edges="E2D2 D2E2 D2D3 D3D4 D4D3"/>
    </person>
    <person id="ped101" type="ped_pedestrian" depart="303.00">
        <walk edges="D3C3 C3C2 C2C1 B1C1"/>
    </person>
    <person id="ped102" type="ped_pedestrian" depart="306.00">
        <walk edges="C2C1 B2C2 B2B3"/>
    </person>
    <person id="ped103" type="ped_pedestrian" depart="309.00">
        <walk edges="C1C0 B1C1 B1B2 B2B3 B3A3 A3B3"/>
    </person>
    <person id="ped104" type="ped_pedestrian" depart="312.00">
        <walk edges="C1B1 C2C1 C2C3 C3D3 D3E3 E3D3"/>
    </person>
    <person id="ped105" type="ped_pedestrian" depart="315.00">
        <walk edges="B3A3 B2B3 B2C2 C2D2 D2D1"/>
    </person>
    <person id="ped106" type="ped_pedestrian" depart="318.00">
        <walk edges="C1D1 C1C2"/>
    </person>
    <person id="ped107" type="ped_pedestrian" depart="321.00">
        <walk edges="E1D1 D1E1 D1D2 D2D3 D3E3 E3D3"/>
    </person>
    <person id="ped108" type="ped_pedestrian" depart="324.00">
        <walk edges="C3B3 C2C3 C2D2 D1D2"/>
    </person>
    <person id="ped109" type="ped_pedestrian" depart="327.00">
        <walk edges="B1C1 B2B1 B2B3 B3B4"/>
    </person>
    <person id="ped110" type="ped_pedestrian" depart="330.00">
        <walk edges="E2D2 D2E2 D2C2 C3C2"/>
    </person>
    <person id="ped111" type="ped_pedestrian" depart="333.00">
        <walk edges="C3B3 C2C3 C2C1 C1D1 D1E1"/>
    </person>
    <person id="ped112" type="ped_pedestrian" depart="336.00">
        <walk edges="A3B3 B3A3 B3C3 C3C4"/>
    </person>
    <person id="ped113" type="ped_pedestrian" depart="339.00">
        <walk edges="C2C3 D3C3"/>
    </person>
    <person id="ped114" type="ped_pedestrian" depart="342.00">
        <walk edges="B1C1 C1C2 C2D2 D2E2 E2D2"/>
    </person>
    <person id="ped115" type="ped_pedestrian" depart="345.00">
        <walk edges="B0B1 B1B0 B1B2 B2A2"/>
    </person>
    <person id="ped116" type="ped_pedestrian" depart="348.00">
        <walk edges="C3C4 C2C3 C2C1 D1C1"/>
    </person>
    <person id="ped117" type="ped_pedestrian" depart="351.00">
        <walk edges="B2C2 B1B2 B1B0"/>
    </person>
    <person id="ped118" type="ped_pedestrian" depart="354.00">
        <walk edges="D3D4 C3D3 C3C2 B2C2"/>
    </person>
    <person id="ped119" type="ped_pedestrian" depart="357.00">
        <walk edges="C3C4 C3D3"/>
    </person>
    <person id="ped120" type="ped_pedestrian" depart="360.00">
        <walk edges="C1C2 C2C3 C3C4"/>
    </person>
    <person id="ped121" type="ped_pedestrian" depart="363.00">
        <walk edges="C2D2 D2D3 D3D4 D4D3"/>
    </person>
    <person id="ped122" type="ped_pedestrian" depart="366.00">
        <walk edges="B2B1 C2B2 C2D2 D1D2"/>
    </person>
    <person id="ped123" type="ped_pedestrian" depart="369.00">
        <walk edges="B2C2 B1B2 C1B1"/>
    </person>
    <person id="ped124" type="ped_pedestrian" depart="372.00">
        <walk edges="D1C1 C1B1 B1B2 B2B3 B3B4"/>
    </person>
    <person id="ped125" type="ped_pedestrian" depart="375.00">
        <walk edges="B3C3 C3C2 D2C2"/>
    </person>
    <person id="ped126" type="ped_pedestrian" depart="378.00">
        <walk edges="B0B1 B1B0 B1C1 C1D1"/>
    </person>
    <person id="ped127" type="ped_pedestrian" depart="381.00">
        <walk edges="E3D3"/>
    </person>
    <person id="ped128" type="ped_pedestrian" depart="384.00">
        <walk edges="B0B1 B1B0 B1B2 B2B3"/>
    </person>
    <person id="ped129" type="ped_pedestrian" depart="387.00">
        <walk edges="B3A3 C3B3 C3D3 D3D4 D4D3"/>
    </person>
    <person id="ped130" type="ped_pedestrian" depart="390.00">
        <walk edges="D3D4"/>
    </person>
    <person id="ped131" type="ped_pedestrian" depart="393.00">
        <walk edges="C0C1 C1C0 B1C1"/>
    </person>
    <person id="ped132" type="ped_pedestrian" depart="396.00">
        <walk edges="D3C3 D2D3 D2D1 D1D0"/>
    </person>
    <person id="ped133" type="ped_pedestrian" depart="399.00">
        <walk edges="C3D3 D3E3 E3D3"/>
    </person>
    <person id="ped134" type="ped_pedestrian" depart="402.00">
        <walk edges="D0D1 D1D0 D1C1 C1B1 B1A1 A1B1"/>
    </person>
    <person id="ped135" type="ped_pedestrian" depart="405.00">
        <walk edges="D2E2 C2D2 C2B2 B2B3 B3B4"/>
    </person>
    <person id="ped136" type="ped_pedestrian" depart="408.00">
        <walk edges="D0D1 D1D0 D1E1 E1D1"/>
    </person>
    <person id="ped137" type="ped_pedestrian" depart="411.00">
        <walk edges="B1B2 B1B0"/>
    </person>
    <person id="ped138" type="ped_pedestrian" depart="414.00">
        <walk edges="B1B0 B2B1 B2B3 C3B3"/>
    </person>
    <person id="ped139" type="ped_pedestrian" depart="417.00">
        <walk edges="B3B2 C3B3 C3D3"/>
    </person>
    <person id="ped140" type="ped_pedestrian" depart="420.00">
        <walk edges="D1D2 C1D1 C1B1 B2B1"/>
    </person>
    <person id="ped141" type="ped_pedestrian" depart="423.00">
        <walk edges="C4C3 C3C4 C3B3 B3A3"/>
    </person>
    <person id="ped142" type="ped_pedestrian" depart="426.00">
        <walk edges="C2C1 C3C2 C3D3 D3E3"/>
    </person>
    <person id="ped143" type="ped_pedestrian" depart="429.00">
        <walk edges="D3C3 C3B3 B3B2 B2B1 B1A1"/>
    </person>
    <person id="ped144" type="ped_pedestrian" depart="432.00">
        <walk edges="C1C2 C2B2 B3B2"/>
    </person>
    <person id="ped145" type="ped_pedestrian" depart="435.00">
        <walk edges="A1B1 B1A1 B1C1 C1D1 D2D1"/>
    </person>
    <person id="ped146" type="ped_pedestrian" depart="438.00">
        <walk edges="C4C3 C3C4 C3B3 B3A3"/>
    </person>
    <person id="ped147" type="ped_pedestrian" depart="441.00">
        <walk edges="D1E1 C1D1 C1C2 C2C3 C3B3"/>
    </person>
    <person id="ped148" type="ped_pedestrian" depart="444.00">
        <walk edges="C1C2 B1C1 B1A1 A1B1"/>
    </person>
    <person id="ped149" type="ped_pedestrian" depart="447.00">
        <walk edges="B0B1 B1B0 B1B2 B2B3 B3C3 D3C3 D3D4"/>
    </person>
    <person id="ped150" type="ped_pedestrian" depart="450.00">
        <walk edges="D3E3 C3D3 C3B3"/>
    </person>
    <person id="ped151" type="ped_pedestrian" depart="453.00">
        <walk edges="D3C3 C3C2"/>
    </person>
    <person id="ped152" type="ped_pedestrian" depart="456.00">
        <walk edges="B1C1 B1B2"/>
    </person>
    <person id="ped153" type="ped_pedestrian" depart="459.00">
        <walk edges="B3B4 C3B3 C3D3 D3E3"/>
    </person>
    <person id="ped154" type="ped_pedestrian" depart="462.00">
        <walk edges="D2D3 D3D2"/>
    </person>
    <person id="ped155" type="ped_pedestrian" depart="465.00">
        <walk edges="D3E3 C3D3 C3B3 B2B3"/>
    </person>
    <person id="ped156" type="ped_pedestrian" depart="468.00">
        <walk edges="B2C2 B1B2 B1A1"/>
    </person>
    <person id="ped157" type="ped_pedestrian" depart="471.00">
        <walk edges="D2D1 D3D2 D3D4"/>
    </person>
    <person id="ped158" type="ped_pedestrian" depart="474.00">
        <walk edges="C1C0 C2C1 C2C3 C3D3"/>
    </person>
    <person id="ped159" type="ped_pedestrian" depart="477.00">
        <walk edges="B1C1 C1C2 C2C3 C3D3 D3D4 D4D3"/>
    </person>
    <person id="ped160" type="ped_pedestrian" depart="480.00">
        <walk edges="D3D2 D2E2 E2D2"/>
    </person>
    <person id="ped161" type="ped_pedestrian" depart="483.00">
        <walk edges="D2D3 D3D4"/>
    </person>
    <person id="ped162" type="ped_pedestrian" depart="486.00">
        <walk edges="A2B2 B2A2 B2B1 B1C1 C1D1 D1E1"/>
    </person>
    <person id="ped163" type="ped_pedestrian" depart="489.00">
        <walk edges="B3C3 C3D3 D3D4 D4D3"/>
    </person>
    <person id="ped164" type="ped_pedestrian" depart="492.00">
        <walk edges="D2D3 D3D2"/>
    </person>
    <person id="ped165" type="ped_pedestrian" depart="495.00">
        <walk edges="D2D3 D3C3 C3B3 B3A3"/>
    </person>
    <person id="ped166" type="ped_pedestrian" depart="498.00">
        <walk edges="D2D1 D1C1 C1B1 B1B0"/>
    </person>
    <person id="ped167" type="ped_pedestrian" depart="501.00">
        <walk edges="D3D2"/>
    </person>
    <person id="ped168" type="ped_pedestrian" depart="504.00">
        <walk edges="B2B3 C2B2 C2D2 D2E2"/>
    </person>
    <person id="ped169" type="ped_pedestrian" depart="507.00">
        <walk edges="C2B2 B2B3 B3B4"/>
    </person>
    <person id="ped170" type="ped_pedestrian" depart="510.00">
        <walk edges="D2D3 C2D2 C2B2 B2B3"/>
    </person>
    <person id="ped171" type="ped_pedestrian" depart="513.00">
        <walk edges="A2B2 B2A2 B2B1"/>
    </person>
    <person id="ped172" type="ped_pedestrian" depart="516.00">
        <walk edges="B3C3 C3D3 D3D2"/>
    </person>
    <person id="ped173" type="ped_pedestrian" depart="519.00">
        <walk edges="E2D2 D2E2 D2C2 C2B2 B3B2"/>
    </person>
    <person id="ped174" type="ped_pedestrian" depart="522.00">
        <walk edges="C4C3 C3C4 C3C2 C2C1 C1C0"/>
    </person>
    <person id="ped175" type="ped_pedestrian" depart="525.00">
        <walk edges="E3D3 D3E3 D3D2 C2D2"/>
    </person>
    <person id="ped176" type="ped_pedestrian" depart="528.00">
        <walk edges="E1D1 D1E1 D1C1 C1B1 B1B0"/>
    </person>
    <person id="ped177" type="ped_pedestrian" depart="531.00">
        <walk edges="E2D2 D2E2 D2C2 C2B2 B2A2"/>
    </person>
    <person id="ped178" type="ped_pedestrian" depart="534.00">
        <walk edges="E2D2 D2E2 D2C2 C2B2 B2B3 B3A3"/>
    </person>
    <person id="ped179" type="ped_pedestrian" depart="537.00">
        <walk edges="B1B0 C1B1 C1C2"/>
    </person>
    <person id="ped180" type="ped_pedestrian" depart="540.00">
        <walk edges="D1D2 D2C2 C2C3 B3C3"/>
    </person>
    <person id="ped181" type="ped_pedestrian" depart="543.00">
        <walk edges="C3D3 C2C3"/>
    </person>
    <person id="ped182" type="ped_pedestrian" depart="546.00">
        <walk edges="C1B1 C2C1 C3C2"/>
    </person>
    <person id="ped183" type="ped_pedestrian" depart="549.00">
        <walk edges="B3A3 B2B3 B2C2 C2D2 D1D2"/>
    </person>
    <person id="ped184" type="ped_pedestrian" depart="552.00">
        <walk edges="A1B1 B1A1 B1B2 B2B3 B3C3 D3C3 D3D4 D4D3"/>
    </person>
    <person id="ped185" type="ped_pedestrian" depart="555.00">
        <walk edges="C2D2 D1D2"/>
    </person>
    <person id="ped186" type="ped_pedestrian" depart="558.00">
        <walk edges="D1E1 D1C1"/>
    </person>
    <person id="ped187" type="ped_pedestrian" depart="561.00">
        <walk edges="C0C1 C1C0 C1B1 B1B0 B0B1"/>
    </person>
    <person id="ped188" type="ped_pedestrian" depart="564.00">
        <walk edges="D0D1 D1D0 D1C1 C1C2 C2C3 B3C3"/>
    </person>
    <person id="ped189" type="ped_pedestrian" depart="567.00">
        <walk edges="B3C3 D3C3"/>
    </person>
    <person id="ped190" type="ped_pedestrian" depart="570.00">
        <walk edges="D1D2 D2C2 C2B2 B2B3 B3B4"/>
    </person>
    <person id="ped191" type="ped_pedestrian" depart="573.00">
        <walk edges="B3B4 B2B3 B2B1 B1C1 C1C0"/>
    </person>
    <person id="ped192" type="ped_pedestrian" depart="576.00">
        <walk edges="C1C0 B1C1 B1B2 B2B3 B3B4"/>
    </person>
    <person id="ped193" type="ped_pedestrian" depart="579.00">
        <walk edges="B1B2 C1B1 C1C2"/>
    </person>
    <person id="ped194" type="ped_pedestrian" depart="582.00">
        <walk edges="E1D1 D1E1 D1C1"/>
    </person>
    <person id="ped195" type="ped_pedestrian" depart="585.00">
        <walk edges="D3E3 C3D3"/>
    </person>
    <person id="ped196" type="ped_pedestrian" depart="588.00">
        <walk edges="B3B4 C3B3"/>
    </person>
    <person id="ped197" type="ped_pedestrian" depart="591.00">
        <walk edges="A1B1 B1A1 B1B2 B3B2"/>
    </person>
    <person id="ped198" type="ped_pedestrian" depart="594.00">
        <walk edges="C1C2 C3C2"/>
    </person>
    <person id="ped199" type="ped_pedestrian" depart="597.00">
        <walk edges="D0D1 D1D0 D1C1 C1C2 C2B2"/>
    </person>
    <person id="ped200" type="ped_pedestrian" depart="600.00">
        <walk edges="C1D1 B1C1 B1B2 B2B3"/>
    </person>
    <person id="ped201" type="ped_pedestrian" depart="603.00">
        <walk edges="C2B2 C3C2 C3D3 D3E3"/>
    </person>
    <person id="ped202" type="ped_pedestrian" depart="606.00">
        <walk edges="D2D3 C2D2 C2B2 B2A2"/>
    </person>
    <person id="ped203" type="ped_pedestrian" depart="609.00">
        <walk edges="B1A1 B2B1 B2C2 C2C3"/>
    </person>
    <person id="ped204" type="ped_pedestrian" depart="612.00">
        <walk edges="C4C3 C3C4 C3B3 B3B4 B4B3"/>
    </person>
    <person id="ped205" type="ped_pedestrian" depart="615.00">
        <walk edges="D2E2 D2C2"/>
    </person>
    <person id="ped206" type="ped_pedestrian" depart="618.00">
        <walk edges="D1C1 C1B1 B1B2 B2B3"/>
    </person>
    <person id="ped207" type="ped_pedestrian" depart="621.00">
        <walk edges="B2B1 B2A2 A2B2"/>
    </person>
    <person id="ped208" type="ped_pedestrian" depart="624.00">
        <walk edges="B2C2 C2B2"/>
    </person>
    <person id="ped209" type="ped_pedestrian" depart="627.00">
        <walk edges="D3C3 C3B3 B3B2 B2B1 B1B0 B0B1"/>
    </person>
    <person id="ped210" type="ped_pedestrian" depart="630.00">
        <walk edges="C1C0 C2C1 C2C3 C3C4 C4C3"/>
    </person>
    <person id="ped211" type="ped_pedestrian" depart="633.00">
        <walk edges="B2B1 B1C1 C1D1 D1D0"/>
    </person>
    <person id="ped212" type="ped_pedestrian" depart="636.00">
        <walk edges="C2C1 B2C2"/>
    </person>
    <person id="ped213" type="ped_pedestrian" depart="639.00">
        <walk edges="D0D1 D1D0 D1C1 C1B1 B1A1 A1B1"/>
    </person>
    <person id="ped214" type="ped_pedestrian" depart="642.00">
        <walk edges="D2C2"/>
    </person>
    <person id="ped215" type="ped_pedestrian" depart="645.00">
        <walk edges="B1B0 C1B1 C1C2"/>
    </person>
    <person id="ped216" type="ped_pedestrian" depart="648.00">
        <walk edges="B2A2 B1B2 B1C1 C1D1 D1E1 E1D1"/>
    </person>
    <person id="ped217" type="ped_pedestrian" depart="651.00">
        <walk edges="C2C3 C3B3 B3A3 A3B3"/>
    </person>
    <person id="ped218" type="ped_pedestrian" depart="654.00">
        <walk edges="B2C2 C2C3 D3C3"/>
    </person>
    <person id="ped219" type="ped_pedestrian" depart="657.00">
        <walk edges="C1D1 D1D2 D2D3"/>
    </person>
    <person id="ped220" type="ped_pedestrian" depart="660.00">
        <walk edges="D1C1 D2D1 D2D3 D3E3 E3D3"/>
    </person>
    <person id="ped221" type="ped_pedestrian" depart="663.00">
        <walk edges="C3C4 C2C3 C2C1 C1D1 D1E1 E1D1"/>
    </person>
    <person id="ped222" type="ped_pedestrian" depart="666.00">
        <walk edges="D3D4 C3D3"/>
    </person>
    <person id="ped223" type="ped_pedestrian" depart="669.00">
        <walk edges="D1D2 D2C2 C2C3"/>
    </person>
    <person id="ped224" type="ped_pedestrian" depart="672.00">
        <walk edges="D2E2 C2D2 C2C3 C3B3"/>
    </person>
    <person id="ped225" type="ped_pedestrian" depart="675.00">
        <walk edges="D3E3 D2D3 D2D1 D1E1"/>
    </person>
    <person id="ped226" type="ped_pedestrian" depart="678.00">
        <walk edges="C2B2 B2B3 B3A3"/>
    </person>
    <person id="ped227" type="ped_pedestrian" depart="681.00">
        <walk edges="B2C2 C2C3 C3C4 C4C3"/>
    </person>
    <person id="ped228" type="ped_pedestrian" depart="684.00">
        <walk edges="D2C2 C2D2"/>
    </person>
    <person id="ped229" type="ped_pedestrian" depart="687.00">
        <walk edges="C4C3 C3C4 C3B3 B3B2"/>
    </person>
    <person id="ped230" type="ped_pedestrian" depart="690.00">
        <walk edges="B0B1 B1B0 B1B2 B3B2"/>
    </person>
    <person id="ped231" type="ped_pedestrian" depart="693.00">
        <walk edges="B3B2 B3C3"/>
    </person>
    <person id="ped232" type="ped_pedestrian" depart="696.00">
        <walk edges="C2D2 B2C2 B1B2"/>
    </person>
    <person id="ped233" type="ped_pedestrian" depart="699.00">
        <walk edges="B2C2 C2C1 C1D1 D1D0"/>
    </person>
    <person id="ped234" type="ped_pedestrian" depart="702.00">
        <walk edges="D1D0 C1D1 C1B1 B1B0 B0B1"/>
    </person>
    <person id="ped235" type="ped_pedestrian" depart="705.00">
        <walk edges="C1C0 C2C1 C2C3 C3B3"/>
    </person>
    <person id="ped236" type="ped_pedestrian" depart="708.00">
        <walk edges="C1C0 B1C1 B2B1"/>
    </person>
    <person id="ped237" type="ped_pedestrian" depart="711.00">
        <walk edges="C1C2 C2C3 C3D3 D3E3"/>
    </person>
    <person id="ped238" type="ped_pedestrian" depart="714.00">
        <walk edges="C3C4 C2C3 C2C1 C1D1 D1D0"/>
    </person>
    <person id="ped239" type="ped_pedestrian" depart="717.00">
        <walk edges="D3D2 D2C2"/>
    </person>
    <person id="ped240" type="ped_pedestrian" depart="720.00">
        <walk edges="C1B1 B1A1 A1B1"/>
    </person>
    <person id="ped241" type="ped_pedestrian" depart="723.00">
        <walk edges="B4B3 B3B4 B3B2 B2C2 D2C2"/>
    </person>
    <person id="ped242" type="ped_pedestrian" depart="726.00">
        <walk edges="D3C3 D2D3 D2D1 D1E1 E1D1"/>
    </person>