<?xml version="1.0" encoding="UTF-8"?>

<!-- generated on 05/11/20 11:10:25 by Eclipse SUMO duarouter Version 1.3.1
<configuration xmlns:xsi="http://www.w3.org/2001/XMLSchema-instance" xsi:noNamespaceSchemaLocation="http://sumo.dlr.de/xsd/duarouterConfiguration.xsd">

    <input>
        <net-file value="optimal3.net.xml"/>
        <route-files value="optimal.motorcycle.trips.xml"/>
    </input>

    <output>
        <output-file value="optimal.motorcycle.rou.xml"/>
        <alternatives-output value="optimal.motorcycle.rou.alt.xml"/>
    </output>

    <time>
        <begin value="0"/>
        <end value="1800.0"/>
    </time>

    <report>
        <no-warnings value="true"/>
        <ignore-errors value="true"/>
        <no-step-log value="true"/>
    </report>

</configuration>
-->

<routes xmlns:xsi="http://www.w3.org/2001/XMLSchema-instance" xsi:noNamespaceSchemaLocation="http://sumo.dlr.de/xsd/routes_file.xsd">
    <vType id="moto_motorcycle" vClass="motorcycle"/>
    <vehicle id="moto0" type="moto_motorcycle" depart="0.00" departLane="best" departSpeed="max">
        <route edges="C4C3 C3C2 C2C1 C1B1 B1A1"/>
    </vehicle>
    <vehicle id="moto1" type="moto_motorcycle" depart="16.94" departLane="best">
        <route edges="B3B2 B2C2"/>
    </vehicle>
    <vehicle id="moto2" type="moto_motorcycle" depart="33.88" departLane="best">
        <route edges="D2C2 C2C1 C1D1 D1D0"/>
    </vehicle>
    <vehicle id="moto3" type="moto_motorcycle" depart="50.82" departLane="best" departSpeed="max">
        <route edges="E1D1 D1C1 C1B1 B1B2"/>
    </vehicle>
    <vehicle id="moto4" type="moto_motorcycle" depart="67.77" departLane="best">
        <route edges="C1C2 C2B2 B2B1 B1A1"/>
    </vehicle>
    <vehicle id="moto5" type="moto_motorcycle" depart="84.71" departLane="best">
        <route edges="B2B1 B1C1 C1C2 C2C3"/>
    </vehicle>
    <vehicle id="moto6" type="moto_motorcycle" depart="101.65" departLane="best" departSpeed="max">
        <route edges="A1B1 B1B2 B2B3"/>
    </vehicle>
    <vehicle id="moto7" type="moto_motorcycle" depart="118.59" departLane="best" departSpeed="max">
        <route edges="D0D1 D1D2 D2D3 D3C3 C3B3"/>
    </vehicle>
    <vehicle id="moto8" type="moto_motorcycle" depart="135.53" departLane="best">
        <route edges="B2B1 B1C1 C1C2 C2C3 C3C4"/>
    </vehicle>
    <vehicle id="moto9" type="moto_motorcycle" depart="152.47" departLane="best">
        <route edges="D3C3 C3C2 C2C1 C1B1 B1A1"/>
    </vehicle>
    <vehicle id="moto10" type="moto_motorcycle" depart="169.42" departLane="best">
        <route edges="D3C3 C3C2 C2D2 D2D1 D1D0"/>
    </vehicle>
    <vehicle id="moto11" type="moto_motorcycle" depart="186.36" departLane="best" departSpeed="max">
        <route edges="B4B3 B3B2 B2A2"/>
    </vehicle>
    <vehicle id="moto12" type="moto_motorcycle" depart="203.30" departLane="best" departSpeed="max">
        <route edges="E2D2 D2C2 C2B2 B2B3 B3C3"/>
    </vehicle>
    <vehicle id="moto13" type="moto_motorcycle" depart="220.24" departLane="best" departSpeed="max">
        <route edges="A3B3 B3C3 C3C2 C2C1 C1B1 B1B2"/>
    </vehicle>
    <vehicle id="moto14" type="moto_motorcycle" depart="237.18" departLane="best" departSpeed="max">
        <route edges="D4D3 D3C3 C3C4"/>
    </vehicle>
    <vehicle id="moto15" type="moto_motorcycle" depart="254.12" departLane="best">
        <route edges="D3C3 C3C2 C2C1 C1D1 D1E1"/>
    </vehicle>
    <vehicle id="moto16" type="moto_motorcycle" depart="271.07" departLane="best">
        <route edges="C2D2 D2D3 D3E3"/>
    </vehicle>
    <vehicle id="moto17" type="moto_motorcycle" depart="288.01" departLane="best" departSpeed="max">
        <route edges="C0C1 C1C2 C2C3 C3B3"/>
    </vehicle>
    <vehicle id="moto18" type="moto_motorcycle" depart="304.95" departLane="best">
        <route edges="D3D2 D2C2 C2C3 C3C4"/>
    </vehicle>
    <vehicle id="moto19" type="moto_motorcycle" depart="321.89" departLane="best" departSpeed="max">
        <route edges="D4D3 D3C3 C3C2"/>
    </vehicle>
    <vehicle id="moto20" type="moto_motorcycle" depart="338.83" departLane="best">
        <route edges="D1C1 C1B1 B1B0"/>
    </vehicle>
    <vehicle id="moto21" type="moto_motorcycle" depart="355.77" departLane="best">
        <route edges="B2B1 B1C1 C1C2 C2C3 C3B3 B3B2"/>
    </vehicle>
    <vehicle id="moto22" type="moto_motorcycle" depart="372.72" departLane="best" departSpeed="max">
        <route edges="A2B2 B2B3 B3A3"/>
    </vehicle>
    <vehicle id="moto23" type="moto_motorcycle" depart="389.66" departLane="best" departSpeed="max">
        <route edges="A3B3 B3B2"/>
    </vehicle>
    <vehicle id="moto24" type="moto_motorcycle" depart="406.60" departLane="best" departSpeed="max">
        <route edges="C4C3 C3C2 C2C1 C1B1"/>
    </vehicle>
    <vehicle id="moto25" type="moto_motorcycle" depart="423.54" departLane="best" departSpeed="max">
        <route edges="C0C1 C1B1 B1B2 B2C2"/>
    </vehicle>
    <vehicle id="moto26" type="moto_motorcycle" depart="440.48" departLane="best">
        <route edges="B2C2 C2D2 D2D3 D3D4"/>
    </vehicle>
    <vehicle id="moto27" type="moto_motorcycle" depart="457.42" departLane="best" departSpeed="max">
        <route edges="D0D1 D1C1 C1C2 C2C3 C3C4"/>
    </vehicle>
    <vehicle id="moto28" type="moto_motorcycle" depart="474.36" departLane="best">
        <route edges="B1B2 B2C2 C2C1 C1D1 D1D2"/>
    </vehicle>
    <vehicle id="moto29" type="moto_motorcycle" depart="491.31" departLane="best" departSpeed="max">
        <route edges="B0B1 B1C1 C1C0"/>
    </vehicle>
    <vehicle id="moto30" type="moto_motorcycle" depart="508.25" departLane="best" departSpeed="max">
        <route edges="E3D3 D3D2 D2C2 C2C3 C3D3"/>
    </vehicle>
    <vehicle id="moto31" type="moto_motorcycle" depart="525.19" departLane="best">
        <route edges="C3B3 B3B2 B2C2 C2D2 D2D1 D1D0"/>
    </vehicle>
    <vehicle id="moto32" type="moto_motorcycle" depart="542.13" departLane="best" departSpeed="max">
        <route edges="D4D3 D3D2 D2C2"/>
    </vehicle>
    <vehicle id="moto33" type="moto_motorcycle" depart="559.07" departLane="best">
        <route edges="B2B1 B1A1"/>
    </vehicle>
    <vehicle id="moto34" type="moto_motorcycle" depart="576.01" departLane="best" departSpeed="max">
        <route edges="B4B3 B3A3"/>
    </vehicle>
    <vehicle id="moto35" type="moto_motorcycle" depart="592.96" departLane="best">
        <route edges="B2B1 B1C1 C1D1 D1D2 D2D3 D3D4"/>
    </vehicle>
    <vehicle id="moto36" type="moto_motorcycle" depart="609.90" departLane="best" departSpeed="max">
        <route edges="E1D1 D1C1 C1B1 B1B2 B2B3 B3B4"/>
    </vehicle>
    <vehicle id="moto37" type="moto_motorcycle" depart="626.84" departLane="best" departSpeed="max">
        <route edges="D0D1 D1C1 C1C0"/>
    </vehicle>
    <vehicle id="moto38" type="moto_motorcycle" depart="643.78" departLane="best" departSpeed="max">
        <route edges="E1D1 D1C1 C1C2 C2B2"/>
    </vehicle>
    <vehicle id="moto39" type="moto_motorcycle" depart="660.72" departLane="best">
        <route edges="B2C2 C2C3 C3B3 B3A3"/>
    </vehicle>
    <vehicle id="moto40" type="moto_motorcycle" depart="677.66" departLane="best">
        <route edges="C3B3 B3A3"/>
    </vehicle>
    <vehicle id="moto41" type="moto_motorcycle" depart="694.61" departLane="best">
        <route edges="C3D3 D3D2"/>
    </vehicle>
    <vehicle id="moto42" type="moto_motorcycle" depart="711.55" departLane="best">
        <route edges="C1B1 B1B2 B2C2"/>
    </vehicle>
    <vehicle id="moto43" type="moto_motorcycle" depart="728.49" departLane="best" departSpeed="max">
        <route edges="E3D3 D3D2 D2C2 C2C3"/>
    </vehicle>
    <vehicle id="moto44" type="moto_motorcycle" depart="745.43" departLane="best" departSpeed="max">
        <route edges="A3B3 B3B2 B2B1 B1B0"/>
    </vehicle>
    <vehicle id="moto45" type="moto_motorcycle" depart="762.37" departLane="best" departSpeed="max">
        <route edges="A3B3 B3C3 C3D3"/>
    </vehicle>
    <vehicle id="moto46" type="moto_motorcycle" depart="779.31" departLane="best">
        <route edges="D3C3 C3C2 C2D2 D2D1 D1C1 C1C2"/>
    </vehicle>
    <vehicle id="moto47" type="moto_motorcycle" depart="796.26" departLane="best" departSpeed="max">
        <route edges="A2B2 B2C2 C2C1 C1C0"/>
    </vehicle>
    <vehicle id="moto48" type="moto_motorcycle" depart="813.20" departLane="best" departSpeed="max">
        <route edges="E3D3 D3C3 C3C2 C2D2"/>
    </vehicle>
    <vehicle id="moto49" type="moto_motorcycle" depart="830.14" departLane="best" departSpeed="max">
        <route edges="E3D3 D3D2 D2E2"/>
    </vehicle>
    <vehicle id="moto50" type="moto_motorcycle" depart="847.08" departLane="best" departSpeed="max">
        <route edges="A1B1 B1C1 C1D1 D1D2"/>
    </vehicle>
    <vehicle id="moto51" type="moto_motorcycle" depart="864.02" departLane="best" departSpeed="max">
        <route edges="D0D1 D1C1 C1C2 C2D2"/>
    </vehicle>
    <vehicle id="moto52" type="moto_motorcycle" depart="880.96" departLane="best">
        <route edges="B2C2 C2C3 C3D3"/>
    </vehicle>
    <vehicle id="moto53" type="moto_motorcycle" depart="897.90" departLane="best" departSpeed="max">
        <route edges="A3B3 B3B2 B2B1 B1C1 C1C2"/>
    </vehicle>
    <vehicle id="moto54" type="moto_motorcycle" depart="914.85" departLane="best">
        <route edges="C1D1 D1D2 D2D3 D3D4"/>
    </vehicle>
    <vehicle id="moto55" type="moto_motorcycle" depart="931.79" departLane="best" departSpeed="max">
        <route edges="E1D1 D1C1 C1C2 C2C3 C3B3 B3A3"/>
    </vehicle>
    <vehicle id="moto56" type="moto_motorcycle" depart="948.73" departLane="best">
        <route edges="C2C3 C3B3 B3B2 B2B1"/>
    </vehicle>
    <vehicle id="moto57" type="moto_motorcycle" depart="965.67" departLane="best" departSpeed="max">
        <route edges="E1D1 D1D2 D2E2"/>
    </vehicle>
    <vehicle id="moto58" type="moto_motorcycle" depart="982.61" departLane="best">
        <route edges="B3C3 C3D3"/>
    </vehicle>
    <vehicle id="moto59" type="moto_motorcycle" depart="999.55" departLane="best" departSpeed="max">
        <route edges="C4C3 C3C2 C2B2 B2A2"/>
    </vehicle>
    <vehicle id="moto60" type="moto_motorcycle" depart="1016.50" departLane="best">
        <route edges="D2D1 D1C1 C1C2 C2D2"/>
    </vehicle>
    <vehicle id="moto61" type="moto_motorcycle" depart="1033.44" departLane="best">
        <route edges="D2D3 D3C3 C3C2 C2D2"/>
    </vehicle>
    <vehicle id="moto62" type="moto_motorcycle" depart="1050.38" departLane="best" departSpeed="max">
        <route edges="A1B1 B1B2 B2B3 B3B4"/>
    </vehicle>
    <vehicle id="moto63" type="moto_motorcycle" depart="1067.32" departLane="best" departSpeed="max">
        <route edges="A1B1 B1C1 C1D1 D1D2 D2D3 D3D4"/>
    </vehicle>
    <vehicle id="moto64" type="moto_motorcycle" depart="1084.26" departLane="best" departSpeed="max">
        <route edges="E1D1 D1D2 D2D3"/>
    </vehicle>
    <vehicle id="moto65" type="moto_motorcycle" depart="1101.20" departLane="best">
        <route edges="B3C3 C3C2 C2B2 B2B1 B1B0"/>
    </vehicle>
    <vehicle id="moto66" type="moto_motorcycle" depart="1118.15" departLane="best" departSpeed="max">
        <route edges="E1D1 D1D2 D2D3 D3D4"/>
    </vehicle>
    <vehicle id="moto67" type="moto_motorcycle" depart="1135.09" departLane="best" departSpeed="max">
        <route edges="A3B3 B3C3 C3C2 C2C1"/>
    </vehicle>
    <vehicle id="moto68" type="moto_motorcycle" depart="1152.03" departLane="best" departSpeed="max">
        <route edges="A2B2 B2C2 C2C1 C1D1 D1E1"/>
    </vehicle>
    <vehicle id="moto69" type="moto_motorcycle" depart="1168.97" departLane="best">
        <route edges="D2D1 D1C1 C1C2 C2B2 B2A2"/>
    </vehicle>
    <vehicle id="moto70" type="moto_motorcycle" depart="1185.91" departLane="best">
        <route edges="C2B2 B2B1 B1C1 C1C2 C2C3 C3B3"/>
    </vehicle>
    <vehicle id="moto71" type="moto_motorcycle" depart="1202.85" departLane="best">
        <route edges="B2C2 C2D2 D2E2"/>
    </vehicle>
    <vehicle id="moto72" type="moto_motorcycle" depart="1219.80" departLane="best">
        <route edges="C1C2 C2C3 C3B3 B3B2 B2C2"/>
    </vehicle>
    <vehicle id="moto73" type="moto_motorcycle" depart="1236.74" departLane="best">
        <route edges="C2D2 D2D1 D1E1"/>
    </vehicle>
    <vehicle id="moto74" type="moto_motorcycle" depart="1253.68" departLane="best">
        <route edges="B1C1 C1C2 C2B2 B2B3 B3B4"/>
    </vehicle>
    <vehicle id="moto75" type="moto_motorcycle" depart="1270.62" departLane="best" departSpeed="max">
        <route edges="E3D3 D3D2 D2D1 D1C1"/>
    </vehicle>
    <vehicle id="moto76" type="moto_motorcycle" depart="1287.56" departLane="best">
        <route edges="C1D1 D1D2 D2C2 C2C3"/>
    </vehicle>
    <vehicle id="moto77" type="moto_motorcycle" depart="1304.50" departLane="best" departSpeed="max">
        <route edges="A3B3 B3B2 B2C2"/>
    </vehicle>
    <vehicle id="moto78" type="moto_motorcycle" depart="1321.45" departLane="best" departSpeed="max">
        <route edges="B4B3 B3C3 C3C4"/>
    </vehicle>
    <vehicle id="moto79" type="moto_motorcycle" depart="1338.39" departLane="best">
        <route edges="B2B3 B3C3 C3C2 C2C1 C1B1 B1B2 B2C2"/>
    </vehicle>
    <vehicle id="moto80" type="moto_motorcycle" depart="1355.33" departLane="best" departSpeed="max">
        <route edges="A2B2 B2B3 B3C3 C3D3"/>
    </vehicle>
    <vehicle id="moto81" type="moto_motorcycle" depart="1372.27" departLane="best">
        <route edges="B2B1 B1C1 C1C2 C2C3 C3D3 D3D2"/>
    </vehicle>
    <vehicle id="moto82" type="moto_motorcycle" depart="1389.21" departLane="best" departSpeed="max">
        <route edges="D4D3 D3D2 D2C2 C2B2 B2B1 B1B0"/>
    </vehicle>
    <vehicle id="moto83" type="moto_motorcycle" depart="1406.15" departLane="best">
        <route edges="B2B3 B3C3 C3D3 D3D2 D2D1 D1D0"/>
    </vehicle>
    <vehicle id="moto84" type="moto_motorcycle" depart="1423.09" departLane="best">
        <route edges="B2B1 B1C1 C1C2 C2B2 B2A2"/>
    </vehicle>
    <vehicle id="moto85" type="moto_motorcycle" depart="1440.04" departLane="best" departSpeed="max">
        <route edges="E2D2 D2D3 D3C3 C3C2"/>
    </vehicle>
    <vehicle id="moto86" type="moto_motorcycle" depart="1456.98" departLane="best">
        <route edges="C2B2 B2B3 B3C3 C3D3 D3D2 D2C2"/>
    </vehicle>
    <vehicle id="moto87" type="moto_motorcycle" depart="1473.92" departLane="best">
        <route edges="D3C3 C3C2 C2B2 B2B3"/>
    </vehicle>
    <vehicle id="moto88" type="moto_motorcycle" depart="1490.86" departLane="best" departSpeed="max">
        <route edges="A3B3 B3B2 B2B1 B1C1 C1C2"/>
    </vehicle>
    <vehicle id="moto89" type="moto_motorcycle" depart="1507.80" departLane="best">
        <route edges="C1C2 C2B2"/>
    </vehicle>
    <vehicle id="moto90" type="moto_motorcycle" depart="1524.74" departLane="best">
        <route edges="D1D2 D2C2 C2C1 C1D1 D1D0"/>
    </vehicle>
    <vehicle id="moto91" type="moto_motorcycle" depart="1541.69" departLane="best" departSpeed="max">
        <route edges="E3D3 D3D2 D2D1 D1C1 C1B1 B1B2"/>
    </vehicle>
    <vehicle id="moto92" type="moto_motorcycle" depart="1558.63" departLane="best">
        <route edges="C1B1 B1B2 B2B3 B3C3"/>
    </vehicle>
    <vehicle id="moto93" type="moto_motorcycle" depart="1575.57" departLane="best" departSpeed="max">
        <route edges="D4D3 D3C3 C3B3 B3A3"/>
    </vehicle>
    <vehicle id="moto94" type="moto_motorcycle" depart="1592.51" departLane="best">
        <route edges="B1C1 C1D1"/>
    </vehicle>
    <vehicle id="moto95" type="moto_motorcycle" depart="1609.45" departLane="best">
        <route edges="C1C2 C2C3 C3B3 B3B2"/>
    </vehicle>
    <vehicle id="moto96" type="moto_motorcycle" depart="1626.39" departLane="best">
        <route edges="B2B3 B3C3 C3D3 D3D4"/>
    </vehicle>
    <vehicle id="moto97" type="moto_motorcycle" depart="1643.34" departLane="best">
        <route edges="C1D1 D1D2 D2E2"/>
    </vehicle>
    <vehicle id="moto98" type="moto_motorcycle" depart="1660.28" departLane="best">
        <route edges="C3B3 B3B2 B2B1 B1B0"/>
    </vehicle>
    <vehicle id="moto99" type="moto_motorcycle" depart="1677.22" departLane="best" departSpeed="max">
        <route edges="E3D3 D3D2 D2E2"/>
    </vehicle>
    <vehicle id="moto100" type="moto_motorcycle" depart="1694.16" departLane="best" departSpeed="max">
        <route edges="E3D3 D3D4"/>
    </vehicle>
    <vehicle id="moto101" type="moto_motorcycle" depart="1711.10" departLane="best" departSpeed="max">
        <route edges="D4D3 D3D2 D2C2 C2B2 B2A2"/>
    </vehicle>
    <vehicle id="moto102" type="moto_motorcycle" depart="1728.04" departLane="best">
        <route edges="C2C1 C1B1 B1B2 B2C2"/>
    </vehicle>
    <vehicle id="moto103" type="moto_motorcycle" depart="1744.99" departLane="best">
        <route edges="C1B1 B1B0"/>
    </vehicle>
    <vehicle id="moto104" type="moto_motorcycle" depart="1761.93" departLane="best" departSpeed="max">
        <route edges="C0C1 C1C2 C2C3 C3D3 D3E3"/>
    </vehicle>
    <vehicle id="moto105" type="moto_motorcycle" depart="1778.87" departLane="best">
        <route edges="B2C2 C2C3 C3D3 D3D2 D2C2"/>
    </vehicle>
    <vehicle id="moto106" type="moto_motorcycle" depart="1795.81" departLane="best">
        <route edges="C1D1 D1D2 D2C2 C2B2 B2B1 B1C1 C1C2"/>
    </vehicle>
</routes>
