<?xml version="1.0" encoding="UTF-8"?>

<!-- generated on 05/27/20 20:29:14 by Eclipse SUMO duarouter Version 1.6.0
<configuration xmlns:xsi="http://www.w3.org/2001/XMLSchema-instance" xsi:noNamespaceSchemaLocation="http://sumo.dlr.de/xsd/duarouterConfiguration.xsd">

    <input>
        <net-file value="optimal.net.xml"/>
        <route-files value="optimal.bus.trips.xml"/>
    </input>

    <output>
        <output-file value="optimal.bus.trips.xml.tmp"/>
        <write-trips value="true"/>
    </output>

    <time>
        <begin value="0"/>
        <end value="1800.0"/>
    </time>

    <report>
        <no-warnings value="true"/>
        <ignore-errors value="true"/>
        <no-step-log value="true"/>
    </report>

</configuration>
-->

<routes xmlns:xsi="http://www.w3.org/2001/XMLSchema-instance" xsi:noNamespaceSchemaLocation="http://sumo.dlr.de/xsd/routes_file.xsd">
    <vType id="bus_bus" vClass="bus"/>
    <trip id="bus0" type="bus_bus" depart="0.00" departLane="best" departSpeed="max" from="D0D1" to="B1A1"/>
    <trip id="bus1" type="bus_bus" depart="15.60" departLane="best" departSpeed="max" from="E2D2" to="B1B0"/>
    <trip id="bus2" type="bus_bus" depart="31.20" departLane="best" departSpeed="max" from="B0B1" to="C2C3"/>
    <trip id="bus3" type="bus_bus" depart="46.80" departLane="best" departSpeed="max" from="B0B1" to="C3C4"/>
    <trip id="bus4" type="bus_bus" depart="62.40" departLane="best" departSpeed="max" from="D4D3" to="B1A1"/>
    <trip id="bus5" type="bus_bus" depart="78.00" departLane="best" departSpeed="max" from="E3D3" to="B3B4"/>
    <trip id="bus6" type="bus_bus" depart="93.60" departLane="best" departSpeed="max" from="E1D1" to="C3C4"/>
    <trip id="bus7" type="bus_bus" depart="109.20" departLane="best" departSpeed="max" from="D4D3" to="D1E1"/>
    <trip id="bus8" type="bus_bus" depart="124.80" departLane="best" departSpeed="max" from="E1D1" to="C3C4"/>
    <trip id="bus9" type="bus_bus" depart="140.40" departLane="best" from="D2C2" to="B1A1"/>
    <trip id="bus10" type="bus_bus" depart="156.00" departLane="best" departSpeed="max" from="B0B1" to="B3A3"/>
    <trip id="bus11" type="bus_bus" depart="171.60" departLane="best" departSpeed="max" from="D0D1" to="B3B4"/>
    <trip id="bus12" type="bus_bus" depart="187.20" departLane="best" departSpeed="max" from="B4B3" to="B2B1"/>
    <trip id="bus13" type="bus_bus" depart="202.80" departLane="best" departSpeed="max" from="D0D1" to="C3D3"/>
    <trip id="bus14" type="bus_bus" depart="218.40" departLane="best" departSpeed="max" from="A3B3" to="D1E1"/>
    <trip id="bus15" type="bus_bus" depart="234.00" departLane="best" departSpeed="max" from="E3D3" to="D1D0"/>
    <trip id="bus16" type="bus_bus" depart="249.60" departLane="best" from="C3D3" to="D1D0"/>
    <trip id="bus17" type="bus_bus" depart="265.20" departLane="best" departSpeed="max" from="B0B1" to="D3E3"/>
    <trip id="bus18" type="bus_bus" depart="280.80" departLane="best" departSpeed="max" from="E1D1" to="B3B4"/>
    <trip id="bus19" type="bus_bus" depart="296.40" departLane="best" departSpeed="max" from="C0C1" to="B2B3"/>
    <trip id="bus20" type="bus_bus" depart="312.00" departLane="best" departSpeed="max" from="D4D3" to="C1C0"/>
    <trip id="bus21" type="bus_bus" depart="327.60" departLane="best" departSpeed="max" from="E3D3" to="C3B3"/>
    <trip id="bus22" type="bus_bus" depart="343.20" departLane="best" departSpeed="max" from="A1B1" to="D1E1"/>
    <trip id="bus23" type="bus_bus" depart="358.80" departLane="best" departSpeed="max" from="E1D1" to="B3A3"/>
    <trip id="bus24" type="bus_bus" depart="374.40" departLane="best" from="B3B2" to="D1D0"/>
    <trip id="bus25" type="bus_bus" depart="390.00" departLane="best" departSpeed="max" from="A1B1" to="B3B4"/>
    <trip id="bus26" type="bus_bus" depart="405.60" departLane="best" departSpeed="max" from="A1B1" to="D3D4"/>
    <trip id="bus27" type="bus_bus" depart="421.20" departLane="best" departSpeed="max" from="A2B2" to="D1E1"/>
    <trip id="bus28" type="bus_bus" depart="436.80" departLane="best" from="C1D1" to="C3C4"/>
    <trip id="bus29" type="bus_bus" depart="452.40" departLane="best" departSpeed="max" from="B0B1" to="B3B4"/>
    <trip id="bus30" type="bus_bus" depart="468.00" departLane="best" departSpeed="max" from="E3D3" to="D1D0"/>
    <trip id="bus31" type="bus_bus" depart="483.60" departLane="best" departSpeed="max" from="B0B1" to="B2B3"/>
    <trip id="bus32" type="bus_bus" depart="499.20" departLane="best" departSpeed="max" from="A2B2" to="D1D0"/>
    <trip id="bus33" type="bus_bus" depart="514.80" departLane="best" departSpeed="max" from="B0B1" to="D3D4"/>
    <trip id="bus34" type="bus_bus" depart="530.40" departLane="best" departSpeed="max" from="E1D1" to="B1B0"/>
    <trip id="bus35" type="bus_bus" depart="546.00" departLane="best" departSpeed="max" from="D4D3" to="B2A2"/>
    <trip id="bus36" type="bus_bus" depart="561.60" departLane="best" departSpeed="max" from="E3D3" to="B1B0"/>
    <trip id="bus37" type="bus_bus" depart="577.20" departLane="best" departSpeed="max" from="C0C1" to="B3B4"/>
    <trip id="bus38" type="bus_bus" depart="592.80" departLane="best" departSpeed="max" from="E1D1" to="B3A3"/>
    <trip id="bus39" type="bus_bus" depart="608.40" departLane="best" departSpeed="max" from="C0C1" to="B3A3"/>
    <trip id="bus40" type="bus_bus" depart="624.00" departLane="best" from="B1B2" to="D3D4"/>
    <trip id="bus41" type="bus_bus" depart="639.60" departLane="best" departSpeed="max" from="E1D1" to="B2A2"/>
    <trip id="bus42" type="bus_bus" depart="655.20" departLane="best" departSpeed="max" from="B4B3" to="D3E3"/>
    <trip id="bus43" type="bus_bus" depart="670.80" departLane="best" departSpeed="max" from="A1B1" to="C3C4"/>
    <trip id="bus44" type="bus_bus" depart="686.40" departLane="best" departSpeed="max" from="A3B3" to="D3E3"/>
    <trip id="bus45" type="bus_bus" depart="702.00" departLane="best" departSpeed="max" from="C4C3" to="D1D0"/>
    <trip id="bus46" type="bus_bus" depart="717.60" departLane="best" departSpeed="max" from="E2D2" to="B3A3"/>
    <trip id="bus47" type="bus_bus" depart="733.20" departLane="best" departSpeed="max" from="C4C3" to="D1C1"/>
    <trip id="bus48" type="bus_bus" depart="748.80" departLane="best" departSpeed="max" from="C0C1" to="C3C4"/>
    <trip id="bus49" type="bus_bus" depart="764.40" departLane="best" departSpeed="max" from="B0B1" to="D1E1"/>
    <trip id="bus50" type="bus_bus" depart="780.00" departLane="best" from="B3C3" to="D1E1"/>
    <trip id="bus51" type="bus_bus" depart="795.60" departLane="best" departSpeed="max" from="D0D1" to="B1A1"/>
    <trip id="bus52" type="bus_bus" depart="811.20" departLane="best" departSpeed="max" from="D0D1" to="D3D4"/>
    <trip id="bus53" type="bus_bus" depart="826.80" departLane="best" departSpeed="max" from="A3B3" to="B1B0"/>
    <trip id="bus54" type="bus_bus" depart="842.40" departLane="best" departSpeed="max" from="D0D1" to="B3A3"/>
    <trip id="bus55" type="bus_bus" depart="858.00" departLane="best" departSpeed="max" from="E1D1" to="B1B0"/>
    <trip id="bus56" type="bus_bus" depart="873.60" departLane="best" departSpeed="max" from="C0C1" to="B3A3"/>
    <trip id="bus57" type="bus_bus" depart="889.20" departLane="best" departSpeed="max" from="D0D1" to="B3A3"/>
    <trip id="bus58" type="bus_bus" depart="904.80" departLane="best" departSpeed="max" from="A2B2" to="D3D4"/>
    <trip id="bus59" type="bus_bus" depart="920.40" departLane="best" departSpeed="max" from="E1D1" to="C3C4"/>
    <trip id="bus60" type="bus_bus" depart="936.00" departLane="best" departSpeed="max" from="E2D2" to="B2B1"/>
    <trip id="bus61" type="bus_bus" depart="951.60" departLane="best" departSpeed="max" from="A3B3" to="D3D4"/>
    <trip id="bus62" type="bus_bus" depart="967.20" departLane="best" departSpeed="max" from="A1B1" to="D1E1"/>
    <trip id="bus63" type="bus_bus" depart="982.80" departLane="best" departSpeed="max" from="D4D3" to="B3A3"/>
    <trip id="bus64" type="bus_bus" depart="998.40" departLane="best" departSpeed="max" from="D4D3" to="B1B0"/>
    <trip id="bus65" type="bus_bus" depart="1014.00" departLane="best" departSpeed="max" from="B0B1" to="D2E2"/>
    <trip id="bus66" type="bus_bus" depart="1029.60" departLane="best" departSpeed="max" from="E3D3" to="B3A3"/>
    <trip id="bus67" type="bus_bus" depart="1045.20" departLane="best" departSpeed="max" from="E2D2" to="B1B0"/>
    <trip id="bus68" type="bus_bus" depart="1060.80" departLane="best" departSpeed="max" from="E3D3" to="B2A2"/>
    <trip id="bus69" type="bus_bus" depart="1076.40" departLane="best" departSpeed="max" from="E3D3" to="B3A3"/>
    <trip id="bus70" type="bus_bus" depart="1092.00" departLane="best" departSpeed="max" from="C0C1" to="C3C4"/>
    <trip id="bus71" type="bus_bus" depart="1107.60" departLane="best" from="B1C1" to="D1E1"/>
    <trip id="bus72" type="bus_bus" depart="1123.20" departLane="best" departSpeed="max" from="A1B1" to="D3D4"/>
    <trip id="bus73" type="bus_bus" depart="1138.80" departLane="best" from="D3C3" to="D1D0"/>
    <trip id="bus74" type="bus_bus" depart="1154.40" departLane="best" departSpeed="max" from="B4B3" to="B1B0"/>
    <trip id="bus75" type="bus_bus" depart="1170.00" departLane="best" departSpeed="max" from="D0D1" to="B3B4"/>
    <trip id="bus76" type="bus_bus" depart="1185.60" departLane="best" from="B3C3" to="D2E2"/>
    <trip id="bus77" type="bus_bus" depart="1201.20" departLane="best" from="B3B2" to="C1C0"/>
    <trip id="bus78" type="bus_bus" depart="1216.80" departLane="best" departSpeed="max" from="C0C1" to="B3A3"/>
    <trip id="bus79" type="bus_bus" depart="1232.40" departLane="best" departSpeed="max" from="A3B3" to="C1C0"/>
    <trip id="bus80" type="bus_bus" depart="1248.00" departLane="best" departSpeed="max" from="C0C1" to="C3C4"/>
    <trip id="bus81" type="bus_bus" depart="1263.60" departLane="best" from="C1D1" to="D3D4"/>
    <trip id="bus82" type="bus_bus" depart="1279.20" departLane="best" departSpeed="max" from="D4D3" to="B2A2"/>
    <trip id="bus83" type="bus_bus" depart="1294.80" departLane="best" departSpeed="max" from="A2B2" to="C2D2"/>
    <trip id="bus84" type="bus_bus" depart="1310.40" departLane="best" departSpeed="max" from="D0D1" to="B3B4"/>
    <trip id="bus85" type="bus_bus" depart="1326.00" departLane="best" departSpeed="max" from="D4D3" to="D1E1"/>
    <trip id="bus86" type="bus_bus" depart="1341.60" departLane="best" departSpeed="max" from="D0D1" to="B2B3"/>
    <trip id="bus87" type="bus_bus" depart="1357.20" departLane="best" departSpeed="max" from="E1D1" to="B1B0"/>
    <trip id="bus88" type="bus_bus" depart="1372.80" departLane="best" departSpeed="max" from="D0D1" to="B1A1"/>
    <trip id="bus89" type="bus_bus" depart="1388.40" departLane="best" departSpeed="max" from="A3B3" to="D3E3"/>
    <trip id="bus90" type="bus_bus" depart="1404.00" departLane="best" from="B1B2" to="D2E2"/>
    <trip id="bus91" type="bus_bus" depart="1419.60" departLane="best" departSpeed="max" from="D0D1" to="D3E3"/>
    <trip id="bus92" type="bus_bus" depart="1435.20" departLane="best" departSpeed="max" from="E1D1" to="C3C4"/>
    <trip id="bus93" type="bus_bus" depart="1450.80" departLane="best" departSpeed="max" from="D0D1" to="B3A3"/>
    <trip id="bus94" type="bus_bus" depart="1466.40" departLane="best" departSpeed="max" from="C0C1" to="D3D4"/>
    <trip id="bus95" type="bus_bus" depart="1482.00" departLane="best" departSpeed="max" from="B4B3" to="B1A1"/>
    <trip id="bus96" type="bus_bus" depart="1497.60" departLane="best" departSpeed="max" from="B4B3" to="D1E1"/>
    <trip id="bus97" type="bus_bus" depart="1513.20" departLane="best" departSpeed="max" from="B0B1" to="B2B3"/>
    <trip id="bus98" type="bus_bus" depart="1528.80" departLane="best" departSpeed="max" from="B4B3" to="D1D0"/>
    <trip id="bus99" type="bus_bus" depart="1544.40" departLane="best" departSpeed="max" from="D0D1" to="B1A1"/>
    <trip id="bus100" type="bus_bus" depart="1560.00" departLane="best" departSpeed="max" from="C0C1" to="C3C4"/>
    <trip id="bus101" type="bus_bus" depart="1575.60" departLane="best" departSpeed="max" from="A1B1" to="D1D0"/>
    <trip id="bus102" type="bus_bus" depart="1591.20" departLane="best" departSpeed="max" from="B0B1" to="B3B4"/>
    <trip id="bus103" type="bus_bus" depart="1606.80" departLane="best" departSpeed="max" from="E3D3" to="B3B4"/>
    <trip id="bus104" type="bus_bus" depart="1622.40" departLane="best" departSpeed="max" from="E3D3" to="B2A2"/>
    <trip id="bus105" type="bus_bus" depart="1638.00" departLane="best" departSpeed="max" from="A3B3" to="D1D0"/>
    <trip id="bus106" type="bus_bus" depart="1653.60" departLane="best" departSpeed="max" from="A3B3" to="C3D3"/>
    <trip id="bus107" type="bus_bus" depart="1669.20" departLane="best" from="D3C3" to="B1B0"/>
    <trip id="bus108" type="bus_bus" depart="1684.80" departLane="best" from="B3C3" to="D1D0"/>
    <trip id="bus109" type="bus_bus" depart="1700.40" departLane="best" departSpeed="max" from="E3D3" to="C1C0"/>
    <trip id="bus110" type="bus_bus" depart="1716.00" departLane="best" departSpeed="max" from="E1D1" to="C3C4"/>
    <trip id="bus111" type="bus_bus" depart="1731.60" departLane="best" departSpeed="max" from="A3B3" to="D3E3"/>
    <trip id="bus112" type="bus_bus" depart="1747.20" departLane="best" departSpeed="max" from="C0C1" to="B3C3"/>
    <trip id="bus113" type="bus_bus" depart="1762.80" departLane="best" departSpeed="max" from="A2B2" to="D3E3"/>
    <trip id="bus114" type="bus_bus" depart="1778.40" departLane="best" from="B2B1" to="D2E2"/>
    <trip id="bus115" type="bus_bus" depart="1794.00" departLane="best" from="B2B1" to="D2E2"/>
</routes>
