<?xml version="1.0" encoding="UTF-8"?>
<!-- generated on 2019-12-09 23:24:53.702268 by $Id$
  options: -n optimal3.net.xml <doubleminus>seed 42 <doubleminus>fringe-factor 1 -p 3.676607 -o optimal.pedestrian.trips.xml -e 3600 -r optimal.pedestrian.rou.xml <doubleminus>vehicle-class pedestrian <doubleminus>pedestrians <doubleminus>prefix ped <doubleminus>max-distance 2000
-->
<routes xmlns:xsi="http://www.w3.org/2001/XMLSchema-instance" xsi:noNamespaceSchemaLocation="http://sumo.dlr.de/xsd/routes_file.xsd">
    <vType id="ped_pedestrian" vClass="pedestrian"/>
    <person id="ped0" depart="0.00" type="ped_pedestrian">
        <walk from="C4C3" to="A2B2"/>
    </person>
    <person id="ped1" depart="3.68" type="ped_pedestrian">
        <walk from="B3B2" to="B2B3"/>
    </person>
    <person id="ped2" depart="7.35" type="ped_pedestrian">
        <walk from="D1E1" to="D1C1"/>
    </person>
    <person id="ped3" depart="11.03" type="ped_pedestrian">
        <walk from="D3D4" to="B1A1"/>
    </person>
    <person id="ped4" depart="14.71" type="ped_pedestrian">
        <walk from="C1C2" to="A2B2"/>
    </person>
    <person id="ped5" depart="18.38" type="ped_pedestrian">
        <walk from="B2B3" to="C2C3"/>
    </person>
    <person id="ped6" depart="22.06" type="ped_pedestrian">
        <walk from="A2B2" to="B2B1"/>
    </person>
    <person id="ped7" depart="25.74" type="ped_pedestrian">
        <walk from="D0D1" to="C3B3"/>
    </person>
    <person id="ped8" depart="29.41" type="ped_pedestrian">
        <walk from="B2B3" to="C3C4"/>
    </person>
    <person id="ped9" depart="33.09" type="ped_pedestrian">
        <walk from="D2D3" to="A1B1"/>
    </person>
    <person id="ped10" depart="36.77" type="ped_pedestrian">
        <walk from="D2D3" to="D1D0"/>
    </person>
    <person id="ped11" depart="40.44" type="ped_pedestrian">
        <walk from="B4B3" to="B1C1"/>
    </person>
    <person id="ped12" depart="44.12" type="ped_pedestrian">
        <walk from="E1D1" to="B4B3"/>
    </person>
    <person id="ped13" depart="47.80" type="ped_pedestrian">
        <walk from="B1A1" to="B1A1"/>
    </person>
    <person id="ped14" depart="51.47" type="ped_pedestrian">
        <walk from="D3C3" to="C3C4"/>
    </person>
    <person id="ped15" depart="55.15" type="ped_pedestrian">
        <walk from="D2D3" to="D1E1"/>
    </person>
    <person id="ped16" depart="58.83" type="ped_pedestrian">
        <walk from="C2D2" to="E2D2"/>
    </person>
    <person id="ped17" depart="62.50" type="ped_pedestrian">
        <walk from="C1B1" to="C3B3"/>
    </person>
    <person id="ped18" depart="66.18" type="ped_pedestrian">
        <walk from="D2E2" to="C3D3"/>
    </person>
    <person id="ped19" depart="69.86" type="ped_pedestrian">
        <walk from="D3D2" to="C3C2"/>
    </person>
    <person id="ped20" depart="73.53" type="ped_pedestrian">
        <walk from="D1D0" to="A3B3"/>
    </person>
    <person id="ped21" depart="77.21" type="ped_pedestrian">
        <walk from="B2B3" to="B3B2"/>
    </person>
    <person id="ped22" depart="80.89" type="ped_pedestrian">
        <walk from="B0B1" to="B2C2"/>
    </person>
    <person id="ped23" depart="84.56" type="ped_pedestrian">
        <walk from="B1A1" to="B3B2"/>
    </person>
    <person id="ped24" depart="88.24" type="ped_pedestrian">
        <walk from="C4C3" to="C0C1"/>
    </person>
    <person id="ped25" depart="91.92" type="ped_pedestrian">
        <walk from="C0C1" to="B2B3"/>
    </person>
    <person id="ped26" depart="95.59" type="ped_pedestrian">
        <walk from="B3A3" to="D4D3"/>
    </person>
    <person id="ped27" depart="99.27" type="ped_pedestrian">
        <walk from="D0D1" to="C3D3"/>
    </person>
    <person id="ped28" depart="102.94" type="ped_pedestrian">
        <walk from="B2A2" to="D1D2"/>
    </person>
    <person id="ped29" depart="106.62" type="ped_pedestrian">
        <walk from="B1C1" to="C1B1"/>
    </person>
    <person id="ped30" depart="110.30" type="ped_pedestrian">
        <walk from="E3D3" to="C4C3"/>
    </person>
    <person id="ped31" depart="113.97" type="ped_pedestrian">
        <walk from="C3B3" to="D1C1"/>
    </person>
    <person id="ped32" depart="117.65" type="ped_pedestrian">
        <walk from="D3C3" to="D2D1"/>
    </person>
    <person id="ped33" depart="121.33" type="ped_pedestrian">
        <walk from="B2B3" to="A2B2"/>
    </person>
    <person id="ped34" depart="125.00" type="ped_pedestrian">
        <walk from="B3C3" to="B3A3"/>
    </person>
    <person id="ped35" depart="128.68" type="ped_pedestrian">
        <walk from="B2B3" to="E1D1"/>
    </person>
    <person id="ped36" depart="132.36" type="ped_pedestrian">
        <walk from="D3D4" to="B3C3"/>
    </person>
    <person id="ped37" depart="136.03" type="ped_pedestrian">
        <walk from="D0D1" to="C1B1"/>
    </person>
    <person id="ped38" depart="139.71" type="ped_pedestrian">
        <walk from="D3E3" to="C2B2"/>
    </person>
    <person id="ped39" depart="143.39" type="ped_pedestrian">
        <walk from="B3A3" to="B2C2"/>
    </person>
    <person id="ped40" depart="147.06" type="ped_pedestrian">
        <walk from="C3B3" to="B3A3"/>
    </person>
    <person id="ped41" depart="150.74" type="ped_pedestrian">
        <walk from="C3C4" to="D3E3"/>
    </person>
    <person id="ped42" depart="154.42" type="ped_pedestrian">
        <walk from="C1C0" to="B2B3"/>
    </person>
    <person id="ped43" depart="158.09" type="ped_pedestrian">
        <walk from="E3D3" to="C2C3"/>
    </person>
    <person id="ped44" depart="161.77" type="ped_pedestrian">
        <walk from="B1A1" to="A3B3"/>
    </person>
    <person id="ped45" depart="165.45" type="ped_pedestrian">
        <walk from="B1B0" to="C4C3"/>
    </person>
    <person id="ped46" depart="169.12" type="ped_pedestrian">
        <walk from="D2D3" to="C1C2"/>
    </person>
    <person id="ped47" depart="172.80" type="ped_pedestrian">
        <walk from="B0B1" to="C1B1"/>
    </person>
    <person id="ped48" depart="176.48" type="ped_pedestrian">
        <walk from="E3D3" to="C2D2"/>
    </person>
    <person id="ped49" depart="180.15" type="ped_pedestrian">
        <walk from="E2D2" to="D3D2"/>
    </person>
    <person id="ped50" depart="183.83" type="ped_pedestrian">
        <walk from="A1B1" to="D1D2"/>
    </person>
    <person id="ped51" depart="187.51" type="ped_pedestrian">
        <walk from="D1C1" to="C2D2"/>
    </person>
    <person id="ped52" depart="191.18" type="ped_pedestrian">
        <walk from="B3A3" to="C4C3"/>
    </person>
    <person id="ped53" depart="194.86" type="ped_pedestrian">
        <walk from="B1B0" to="C1C2"/>
    </person>
    <person id="ped54" depart="198.54" type="ped_pedestrian">
        <walk from="C1D1" to="E1D1"/>
    </person>
    <person id="ped55" depart="202.21" type="ped_pedestrian">
        <walk from="D3D4" to="B3A3"/>
    </person>
    <person id="ped56" depart="205.89" type="ped_pedestrian">
        <walk from="C2C3" to="B2A2"/>
    </person>
    <person id="ped57" depart="209.57" type="ped_pedestrian">
        <walk from="D3E3" to="D3D2"/>
    </person>
    <person id="ped58" depart="213.24" type="ped_pedestrian">
        <walk from="B3B4" to="C4C3"/>
    </person>
    <person id="ped59" depart="216.92" type="ped_pedestrian">
        <walk from="C3D3" to="B1C1"/>
    </person>
    <person id="ped60" depart="220.60" type="ped_pedestrian">
        <walk from="D2C2" to="C2D2"/>
    </person>
    <person id="ped61" depart="224.27" type="ped_pedestrian">
        <walk from="D2D1" to="C2D2"/>
    </person>
    <person id="ped62" depart="227.95" type="ped_pedestrian">
        <walk from="A1B1" to="B3C3"/>
    </person>
    <person id="ped63" depart="231.63" type="ped_pedestrian">
        <walk from="A1B1" to="D4D3"/>
    </person>
    <person id="ped64" depart="235.30" type="ped_pedestrian">
        <walk from="D3D4" to="D2E2"/>
    </person>
    <person id="ped65" depart="238.98" type="ped_pedestrian">
        <walk from="B3B4" to="A3B3"/>
    </person>
    <person id="ped66" depart="242.66" type="ped_pedestrian">
        <walk from="D3D4" to="E1D1"/>
    </person>
    <person id="ped67" depart="246.33" type="ped_pedestrian">
        <walk from="B1A1" to="C2C1"/>
    </person>
    <person id="ped68" depart="250.01" type="ped_pedestrian">
        <walk from="B0B1" to="D2C2"/>
    </person>
    <person id="ped69" depart="253.69" type="ped_pedestrian">
        <walk from="D2C2" to="B1B2"/>
    </person>
    <person id="ped70" depart="257.36" type="ped_pedestrian">
        <walk from="C2B2" to="C3B3"/>
    </person>
    <person id="ped71" depart="261.04" type="ped_pedestrian">
        <walk from="B3A3" to="D3D2"/>
    </person>
    <person id="ped72" depart="264.72" type="ped_pedestrian">
        <walk from="C1C2" to="B2B3"/>
    </person>
    <person id="ped73" depart="268.39" type="ped_pedestrian">
        <walk from="C2D2" to="D1E1"/>
    </person>
    <person id="ped74" depart="272.07" type="ped_pedestrian">
        <walk from="B2B1" to="B3B4"/>
    </person>
    <person id="ped75" depart="275.75" type="ped_pedestrian">
        <walk from="E3D3" to="D0D1"/>
    </person>
    <person id="ped76" depart="279.42" type="ped_pedestrian">
        <walk from="C1D1" to="C2C3"/>
    </person>
    <person id="ped77" depart="283.10" type="ped_pedestrian">
        <walk from="B1B0" to="B2B3"/>
    </person>
    <person id="ped78" depart="286.78" type="ped_pedestrian">
        <walk from="B4B3" to="C3C4"/>
    </person>
    <person id="ped79" depart="290.45" type="ped_pedestrian">
        <walk from="B2C2" to="B2B3"/>
    </person>
    <person id="ped80" depart="294.13" type="ped_pedestrian">
        <walk from="B0B1" to="C4C3"/>
    </person>
    <person id="ped81" depart="297.81" type="ped_pedestrian">
        <walk from="B2B3" to="D3E3"/>
    </person>
    <person id="ped82" depart="301.48" type="ped_pedestrian">
        <walk from="D3D2" to="B0B1"/>
    </person>
    <person id="ped83" depart="305.16" type="ped_pedestrian">
        <walk from="B2C2" to="D1C1"/>
    </person>
    <person id="ped84" depart="308.83" type="ped_pedestrian">
        <walk from="B2B3" to="B1B2"/>
    </person>
    <person id="ped85" depart="312.51" type="ped_pedestrian">
        <walk from="D4D3" to="C3C2"/>
    </person>
    <person id="ped86" depart="316.19" type="ped_pedestrian">
        <walk from="C2B2" to="D2D1"/>
    </person>
    <person id="ped87" depart="319.86" type="ped_pedestrian">
        <walk from="D2D3" to="B2B1"/>
    </person>
    <person id="ped88" depart="323.54" type="ped_pedestrian">
        <walk from="B1A1" to="C1C2"/>
    </person>
    <person id="ped89" depart="327.22" type="ped_pedestrian">
        <walk from="C1C2" to="C2B2"/>
    </person>
    <person id="ped90" depart="330.89" type="ped_pedestrian">
        <walk from="D1D2" to="D1C1"/>
    </person>
    <person id="ped91" depart="334.57" type="ped_pedestrian">
        <walk from="E3D3" to="B1A1"/>
    </person>
    <person id="ped92" depart="338.25" type="ped_pedestrian">
        <walk from="C1C0" to="B4B3"/>
    </person>
    <person id="ped93" depart="341.92" type="ped_pedestrian">
        <walk from="D3D2" to="B2C2"/>
    </person>
    <person id="ped94" depart="345.60" type="ped_pedestrian">
        <walk from="B2B1" to="C1D1"/>
    </person>
    <person id="ped95" depart="349.28" type="ped_pedestrian">
        <walk from="C1C2" to="B3B2"/>
    </person>
    <person id="ped96" depart="352.95" type="ped_pedestrian">
        <walk from="B2C2" to="D4D3"/>
    </person>
    <person id="ped97" depart="356.63" type="ped_pedestrian">
        <walk from="C1D1" to="D3D2"/>
    </person>
    <person id="ped98" depart="360.31" type="ped_pedestrian">
        <walk from="C3B3" to="A3B3"/>
    </person>
    <person id="ped99" depart="363.98" type="ped_pedestrian">
        <walk from="E3D3" to="D3C3"/>
    </person>
    <person id="ped100" depart="367.66" type="ped_pedestrian">
        <walk from="E2D2" to="D4D3"/>
    </person>
    <person id="ped101" depart="371.34" type="ped_pedestrian">
        <walk from="D3C3" to="B1C1"/>
    </person>
    <person id="ped102" depart="375.01" type="ped_pedestrian">
        <walk from="C2C1" to="B2B3"/>
    </person>
    <person id="ped103" depart="378.69" type="ped_pedestrian">
        <walk from="C1C0" to="A3B3"/>
    </person>
    <person id="ped104" depart="382.37" type="ped_pedestrian">
        <walk from="C1B1" to="E3D3"/>
    </person>
    <person id="ped105" depart="386.04" type="ped_pedestrian">
        <walk from="B3A3" to="D2D1"/>
    </person>
    <person id="ped106" depart="389.72" type="ped_pedestrian">
        <walk from="C1D1" to="C1C2"/>
    </person>
    <person id="ped107" depart="393.40" type="ped_pedestrian">
        <walk from="E1D1" to="E3D3"/>
    </person>
    <person id="ped108" depart="397.07" type="ped_pedestrian">
        <walk from="C3B3" to="D1D2"/>
    </person>
    <person id="ped109" depart="400.75" type="ped_pedestrian">
        <walk from="B1C1" to="B3B4"/>
    </person>
    <person id="ped110" depart="404.43" type="ped_pedestrian">
        <walk from="E2D2" to="C3C2"/>
    </person>
    <person id="ped111" depart="408.10" type="ped_pedestrian">
        <walk from="C3B3" to="D1E1"/>
    </person>
    <person id="ped112" depart="411.78" type="ped_pedestrian">
        <walk from="A3B3" to="C3C4"/>
    </person>
    <person id="ped113" depart="415.46" type="ped_pedestrian">
        <walk from="C2C3" to="D3C3"/>
    </person>
    <person id="ped114" depart="419.13" type="ped_pedestrian">
        <walk from="B1C1" to="E2D2"/>
    </person>
    <person id="ped115" depart="422.81" type="ped_pedestrian">
        <walk from="B0B1" to="B2A2"/>
    </person>
    <person id="ped116" depart="426.49" type="ped_pedestrian">
        <walk from="C3C4" to="D1C1"/>
    </person>
    <person id="ped117" depart="430.16" type="ped_pedestrian">
        <walk from="B2C2" to="B1B0"/>
    </person>
    <person id="ped118" depart="433.84" type="ped_pedestrian">
        <walk from="D3D4" to="B2C2"/>
    </person>
    <person id="ped119" depart="437.52" type="ped_pedestrian">
        <walk from="C3C4" to="C3D3"/>
    </person>
    <person id="ped120" depart="441.19" type="ped_pedestrian">
        <walk from="C1C2" to="C3C4"/>
    </person>
    <person id="ped121" depart="444.87" type="ped_pedestrian">
        <walk from="C2D2" to="D4D3"/>
    </person>
    <person id="ped122" depart="448.55" type="ped_pedestrian">
        <walk from="B2B1" to="D1D2"/>
    </person>
    <person id="ped123" depart="452.22" type="ped_pedestrian">
        <walk from="B2C2" to="C1B1"/>
    </person>
    <person id="ped124" depart="455.90" type="ped_pedestrian">
        <walk from="D1C1" to="B3B4"/>
    </person>
    <person id="ped125" depart="459.58" type="ped_pedestrian">
        <walk from="B3C3" to="D2C2"/>
    </person>
    <person id="ped126" depart="463.25" type="ped_pedestrian">
        <walk from="B0B1" to="C1D1"/>
    </person>
    <person id="ped127" depart="466.93" type="ped_pedestrian">
        <walk from="E3D3" to="E3D3"/>
    </person>
    <person id="ped128" depart="470.61" type="ped_pedestrian">
        <walk from="B0B1" to="B2B3"/>
    </person>
    <person id="ped129" depart="474.28" type="ped_pedestrian">
        <walk from="B3A3" to="D4D3"/>
    </person>
    <person id="ped130" depart="477.96" type="ped_pedestrian">
        <walk from="D3D4" to="D3D4"/>
    </person>
    <person id="ped131" depart="481.64" type="ped_pedestrian">
        <walk from="C0C1" to="B1C1"/>
    </person>
    <person id="ped132" depart="485.31" type="ped_pedestrian">
        <walk from="D3C3" to="D1D0"/>
    </person>
    <person id="ped133" depart="488.99" type="ped_pedestrian">
        <walk from="C3D3" to="E3D3"/>
    </person>
    <person id="ped134" depart="492.67" type="ped_pedestrian">
        <walk from="D0D1" to="A1B1"/>
    </person>
    <person id="ped135" depart="496.34" type="ped_pedestrian">
        <walk from="D2E2" to="B3B4"/>
    </person>
    <person id="ped136" depart="500.02" type="ped_pedestrian">
        <walk from="D0D1" to="E1D1"/>
    </person>
    <person id="ped137" depart="503.70" type="ped_pedestrian">
        <walk from="B1B2" to="B1B0"/>
    </person>
    <person id="ped138" depart="507.37" type="ped_pedestrian">
        <walk from="B1B0" to="C3B3"/>
    </person>
    <person id="ped139" depart="511.05" type="ped_pedestrian">
        <walk from="B3B2" to="C3D3"/>
    </person>
    <person id="ped140" depart="514.72" type="ped_pedestrian">
        <walk from="D1D2" to="B2B1"/>
    </person>
    <person id="ped141" depart="518.40" type="ped_pedestrian">
        <walk from="C4C3" to="B3A3"/>
    </person>
    <person id="ped142" depart="522.08" type="ped_pedestrian">
        <walk from="C2C1" to="D3E3"/>
    </person>
    <person id="ped143" depart="525.75" type="ped_pedestrian">
        <walk from="D3C3" to="B1A1"/>
    </person>
    <person id="ped144" depart="529.43" type="ped_pedestrian">
        <walk from="C1C2" to="B3B2"/>
    </person>
    <person id="ped145" depart="533.11" type="ped_pedestrian">
        <walk from="A1B1" to="D2D1"/>
    </person>
    <person id="ped146" depart="536.78" type="ped_pedestrian">
        <walk from="C4C3" to="B3A3"/>
    </person>
    <person id="ped147" depart="540.46" type="ped_pedestrian">
        <walk from="D1E1" to="C3B3"/>
    </person>
    <person id="ped148" depart="544.14" type="ped_pedestrian">
        <walk from="C1C2" to="A1B1"/>
    </person>
    <person id="ped149" depart="547.81" type="ped_pedestrian">
        <walk from="B0B1" to="D3D4"/>
    </person>
    <person id="ped150" depart="551.49" type="ped_pedestrian">
        <walk from="D3E3" to="C3B3"/>
    </person>
    <person id="ped151" depart="555.17" type="ped_pedestrian">
        <walk from="D3C3" to="C3C2"/>
    </person>
    <person id="ped152" depart="558.84" type="ped_pedestrian">
        <walk from="B1C1" to="B1B2"/>
    </person>
    <person id="ped153" depart="562.52" type="ped_pedestrian">
        <walk from="B3B4" to="D3E3"/>
    </person>
    <person id="ped154" depart="566.20" type="ped_pedestrian">
        <walk from="D2D3" to="D3D2"/>
    </person>
    <person id="ped155" depart="569.87" type="ped_pedestrian">
        <walk from="D3E3" to="B2B3"/>
    </person>
    <person id="ped156" depart="573.55" type="ped_pedestrian">
        <walk from="B2C2" to="B1A1"/>
    </person>
    <person id="ped157" depart="577.23" type="ped_pedestrian">
        <walk from="D2D1" to="D3D4"/>
    </person>
    <person id="ped158" depart="580.90" type="ped_pedestrian">
        <walk from="C1C0" to="C3D3"/>
    </person>
    <person id="ped159" depart="584.58" type="ped_pedestrian">
        <walk from="B1C1" to="D4D3"/>
    </person>
    <person id="ped160" depart="588.26" type="ped_pedestrian">
        <walk from="D3D2" to="E2D2"/>
    </person>
    <person id="ped161" depart="591.93" type="ped_pedestrian">
        <walk from="D2D3" to="D3D4"/>
    </person>
    <person id="ped162" depart="595.61" type="ped_pedestrian">
        <walk from="A2B2" to="D1E1"/>
    </person>
    <person id="ped163" depart="599.29" type="ped_pedestrian">
        <walk from="B3C3" to="D4D3"/>
    </person>
    <person id="ped164" depart="602.96" type="ped_pedestrian">
        <walk from="D2D3" to="D3D2"/>
    </person>
    <person id="ped165" depart="606.64" type="ped_pedestrian">
        <walk from="D2D3" to="B3A3"/>
    </person>
    <person id="ped166" depart="610.32" type="ped_pedestrian">
        <walk from="D2D1" to="B1B0"/>
    </person>
    <person id="ped167" depart="613.99" type="ped_pedestrian">
        <walk from="D3D2" to="D3D2"/>
    </person>
    <person id="ped168" depart="617.67" type="ped_pedestrian">
        <walk from="B2B3" to="D2E2"/>
    </person>
    <person id="ped169" depart="621.35" type="ped_pedestrian">
        <walk from="C2B2" to="B3B4"/>
    </person>
    <person id="ped170" depart="625.02" type="ped_pedestrian">
        <walk from="D2D3" to="B2B3"/>
    </person>
    <person id="ped171" depart="628.70" type="ped_pedestrian">
        <walk from="A2B2" to="B2B1"/>
    </person>
    <person id="ped172" depart="632.38" type="ped_pedestrian">
        <walk from="B3C3" to="D3D2"/>
    </person>
    <person id="ped173" depart="636.05" type="ped_pedestrian">
        <walk from="E2D2" to="B3B2"/>
    </person>
    <person id="ped174" depart="639.73" type="ped_pedestrian">
        <walk from="C4C3" to="C1C0"/>
    </person>
    <person id="ped175" depart="643.41" type="ped_pedestrian">
        <walk from="E3D3" to="C2D2"/>
    </person>
    <person id="ped176" depart="647.08" type="ped_pedestrian">
        <walk from="E1D1" to="B1B0"/>
    </person>
    <person id="ped177" depart="650.76" type="ped_pedestrian">
        <walk from="E2D2" to="B2A2"/>
    </person>
    <person id="ped178" depart="654.44" type="ped_pedestrian">
        <walk from="E2D2" to="B3A3"/>
    </person>
    <person id="ped179" depart="658.11" type="ped_pedestrian">
        <walk from="B1B0" to="C1C2"/>
    </person>
    <person id="ped180" depart="661.79" type="ped_pedestrian">
        <walk from="D1D2" to="B3C3"/>
    </person>
    <person id="ped181" depart="665.47" type="ped_pedestrian">
        <walk from="C3D3" to="C2C3"/>
    </person>
    <person id="ped182" depart="669.14" type="ped_pedestrian">
        <walk from="C1B1" to="C3C2"/>
    </person>
    <person id="ped183" depart="672.82" type="ped_pedestrian">
        <walk from="B3A3" to="D1D2"/>
    </person>
    <person id="ped184" depart="676.50" type="ped_pedestrian">
        <walk from="A1B1" to="D4D3"/>
    </person>
    <person id="ped185" depart="680.17" type="ped_pedestrian">
        <walk from="C2D2" to="D1D2"/>
    </person>
    <person id="ped186" depart="683.85" type="ped_pedestrian">
        <walk from="D1E1" to="D1C1"/>
    </person>
    <person id="ped187" depart="687.53" type="ped_pedestrian">
        <walk from="C0C1" to="B0B1"/>
    </person>
    <person id="ped188" depart="691.20" type="ped_pedestrian">
        <walk from="D0D1" to="B3C3"/>
    </person>
    <person id="ped189" depart="694.88" type="ped_pedestrian">
        <walk from="B3C3" to="D3C3"/>
    </person>
    <person id="ped190" depart="698.56" type="ped_pedestrian">
        <walk from="D1D2" to="B3B4"/>
    </person>
    <person id="ped191" depart="702.23" type="ped_pedestrian">
        <walk from="B3B4" to="C1C0"/>
    </person>
    <person id="ped192" depart="705.91" type="ped_pedestrian">
        <walk from="C1C0" to="B3B4"/>
    </person>
    <person id="ped193" depart="709.59" type="ped_pedestrian">
        <walk from="B1B2" to="C1C2"/>
    </person>
    <person id="ped194" depart="713.26" type="ped_pedestrian">
        <walk from="E1D1" to="D1C1"/>
    </person>
    <person id="ped195" depart="716.94" type="ped_pedestrian">
        <walk from="D3E3" to="C3D3"/>
    </person>
    <person id="ped196" depart="720.61" type="ped_pedestrian">
        <walk from="B3B4" to="C3B3"/>
    </person>
    <person id="ped197" depart="724.29" type="ped_pedestrian">
        <walk from="A1B1" to="B3B2"/>
    </person>
    <person id="ped198" depart="727.97" type="ped_pedestrian">
        <walk from="C1C2" to="C3C2"/>
    </person>
    <person id="ped199" depart="731.64" type="ped_pedestrian">
        <walk from="D0D1" to="C2B2"/>
    </person>
    <person id="ped200" depart="735.32" type="ped_pedestrian">
        <walk from="C1D1" to="B2B3"/>
    </person>
    <person id="ped201" depart="739.00" type="ped_pedestrian">
        <walk from="C2B2" to="D3E3"/>
    </person>
    <person id="ped202" depart="742.67" type="ped_pedestrian">
        <walk from="D2D3" to="B2A2"/>
    </person>
    <person id="ped203" depart="746.35" type="ped_pedestrian">
        <walk from="B1A1" to="C2C3"/>
    </person>
    <person id="ped204" depart="750.03" type="ped_pedestrian">
        <walk from="C4C3" to="B4B3"/>
    </person>
    <person id="ped205" depart="753.70" type="ped_pedestrian">
        <walk from="D2E2" to="D2C2"/>
    </person>
    <person id="ped206" depart="757.38" type="ped_pedestrian">
        <walk from="D1C1" to="B2B3"/>
    </person>
    <person id="ped207" depart="761.06" type="ped_pedestrian">
        <walk from="B2B1" to="A2B2"/>
    </person>
    <person id="ped208" depart="764.73" type="ped_pedestrian">
        <walk from="B2C2" to="C2B2"/>
    </person>
    <person id="ped209" depart="768.41" type="ped_pedestrian">
        <walk from="D3C3" to="B0B1"/>
    </person>
    <person id="ped210" depart="772.09" type="ped_pedestrian">
        <walk from="C1C0" to="C4C3"/>
    </person>
    <person id="ped211" depart="775.76" type="ped_pedestrian">
        <walk from="B2B1" to="D1D0"/>
    </person>
    <person id="ped212" depart="779.44" type="ped_pedestrian">
        <walk from="C2C1" to="B2C2"/>
    </person>
    <person id="ped213" depart="783.12" type="ped_pedestrian">
        <walk from="D0D1" to="A1B1"/>
    </person>
    <person id="ped214" depart="786.79" type="ped_pedestrian">
        <walk from="D2C2" to="D2C2"/>
    </person>
    <person id="ped215" depart="790.47" type="ped_pedestrian">
        <walk from="B1B0" to="C1C2"/>
    </person>
    <person id="ped216" depart="794.15" type="ped_pedestrian">
        <walk from="B2A2" to="E1D1"/>
    </person>
    <person id="ped217" depart="797.82" type="ped_pedestrian">
        <walk from="C2C3" to="A3B3"/>
    </person>
    <person id="ped218" depart="801.50" type="ped_pedestrian">
        <walk from="B2C2" to="D3C3"/>
    </person>
    <person id="ped219" depart="805.18" type="ped_pedestrian">
        <walk from="C1D1" to="D2D3"/>
    </person>
    <person id="ped220" depart="808.85" type="ped_pedestrian">
        <walk from="D1C1" to="E3D3"/>
    </person>
    <person id="ped221" depart="812.53" type="ped_pedestrian">
        <walk from="C3C4" to="E1D1"/>
    </person>
    <person id="ped222" depart="816.21" type="ped_pedestrian">
        <walk from="D3D4" to="C3D3"/>
    </person>
    <person id="ped223" depart="819.88" type="ped_pedestrian">
        <walk from="D1D2" to="C2C3"/>
    </person>
    <person id="ped224" depart="823.56" type="ped_pedestrian">
        <walk from="D2E2" to="C3B3"/>
    </person>
    <person id="ped225" depart="827.24" type="ped_pedestrian">
        <walk from="D3E3" to="D1E1"/>
    </person>
    <person id="ped226" depart="830.91" type="ped_pedestrian">
        <walk from="C2B2" to="B3A3"/>
    </person>
    <person id="ped227" depart="834.59" type="ped_pedestrian">
        <walk from="B2C2" to="C4C3"/>
    </person>
    <person id="ped228" depart="838.27" type="ped_pedestrian">
        <walk from="D2C2" to="C2D2"/>
    </person>
    <person id="ped229" depart="841.94" type="ped_pedestrian">
        <walk from="C4C3" to="B3B2"/>
    </person>
    <person id="ped230" depart="845.62" type="ped_pedestrian">
        <walk from="B0B1" to="B3B2"/>
    </person>
    <person id="ped231" depart="849.30" type="ped_pedestrian">
        <walk from="B3B2" to="B3C3"/>
    </person>
    <person id="ped232" depart="852.97" type="ped_pedestrian">
        <walk from="C2D2" to="B1B2"/>
    </person>
    <person id="ped233" depart="856.65" type="ped_pedestrian">
        <walk from="B2C2" to="D1D0"/>
    </person>
    <person id="ped234" depart="860.33" type="ped_pedestrian">
        <walk from="D1D0" to="B0B1"/>
    </person>
    <person id="ped235" depart="864.00" type="ped_pedestrian">
        <walk from="C1C0" to="C3B3"/>
    </person>
    <person id="ped236" depart="867.68" type="ped_pedestrian">
        <walk from="C1C0" to="B2B1"/>
    </person>
    <person id="ped237" depart="871.36" type="ped_pedestrian">
        <walk from="C1C2" to="D3E3"/>
    </person>
    <person id="ped238" depart="875.03" type="ped_pedestrian">
        <walk from="C3C4" to="D1D0"/>
    </person>
    <person id="ped239" depart="878.71" type="ped_pedestrian">
        <walk from="D3D2" to="D2C2"/>
    </person>
    <person id="ped240" depart="882.39" type="ped_pedestrian">
        <walk from="C1B1" to="A1B1"/>
    </person>
    <person id="ped241" depart="886.06" type="ped_pedestrian">
        <walk from="B4B3" to="D2C2"/>
    </person>
    <person id="ped242" depart="889.74" type="ped_pedestrian">
        <walk from="D3C3" to="E1D1"/>
    </person>
    <person id="ped243" depart="893.42" type="ped_pedestrian">
        <walk from="C1C2" to="D1E1"/>
    </person>
    <person id="ped244" depart="897.09" type="ped_pedestrian">
        <walk from="C3B3" to="C3C4"/>
    </person>
    <person id="ped245" depart="900.77" type="ped_pedestrian">
        <walk from="B2B3" to="B2B3"/>
    </person>
    <person id="ped246" depart="904.45" type="ped_pedestrian">
        <walk from="C1C2" to="A2B2"/>
    </person>
    <person id="ped247" depart="908.12" type="ped_pedestrian">
        <walk from="B4B3" to="D1C1"/>
    </person>
    <person id="ped248" depart="911.80" type="ped_pedestrian">
        <walk from="C1C0" to="B1C1"/>
    </person>
    <person id="ped249" depart="915.48" type="ped_pedestrian">
        <walk from="C2B2" to="B1B2"/>
    </person>
    <person id="ped250" depart="919.15" type="ped_pedestrian">
        <walk from="C3D3" to="A2B2"/>
    </person>
    <person id="ped251" depart="922.83" type="ped_pedestrian">
        <walk from="C1B1" to="C3C2"/>
    </person>
    <person id="ped252" depart="926.50" type="ped_pedestrian">
        <walk from="A2B2" to="C4C3"/>
    </person>
    <person id="ped253" depart="930.18" type="ped_pedestrian">
        <walk from="B1B2" to="C2B2"/>
    </person>
    <person id="ped254" depart="933.86" type="ped_pedestrian">
        <walk from="A3B3" to="C1B1"/>
    </person>
    <person id="ped255" depart="937.53" type="ped_pedestrian">
        <walk from="B2B3" to="B3C3"/>
    </person>
    <person id="ped256" depart="941.21" type="ped_pedestrian">
        <walk from="D2C2" to="C1B1"/>
    </person>