<?xml version="1.0" encoding="UTF-8"?>

<!-- generated on 06/23/20 13:19:28 by Eclipse SUMO duarouter Version 1.6.0
<configuration xmlns:xsi="http://www.w3.org/2001/XMLSchema-instance" xsi:noNamespaceSchemaLocation="http://sumo.dlr.de/xsd/duarouterConfiguration.xsd">

    <input>
        <net-file value="optimal.net.xml"/>
        <route-files value="optimal.truck.trips.xml"/>
    </input>

    <output>
        <output-file value="optimal.truck.trips.xml.tmp"/>
        <write-trips value="true"/>
    </output>

    <time>
        <begin value="0"/>
        <end value="1800.0"/>
    </time>

    <report>
        <no-warnings value="true"/>
        <ignore-errors value="true"/>
        <no-step-log value="true"/>
    </report>

</configuration>
-->

<routes xmlns:xsi="http://www.w3.org/2001/XMLSchema-instance" xsi:noNamespaceSchemaLocation="http://sumo.dlr.de/xsd/routes_file.xsd">
    <vType id="truck_truck" vClass="truck"/>
    <trip id="truck0" type="truck_truck" depart="0.00" departLane="best" departSpeed="max" from="D4D3" to="D2E2" via="B1B2"/>
    <trip id="truck1" type="truck_truck" depart="28.00" departLane="best" departSpeed="max" from="B0B1" to="B1B0" via="B3C3"/>
    <trip id="truck2" type="truck_truck" depart="56.00" departLane="best" departSpeed="max" from="C0C1" to="D3E3" via="B3B2"/>
    <trip id="truck3" type="truck_truck" depart="84.00" departLane="best" departSpeed="max" from="E1D1" to="D1E1" via="B1B2"/>
    <trip id="truck4" type="truck_truck" depart="112.00" departLane="best" departSpeed="max" from="A3B3" to="B1B0" via="D3D2"/>
    <trip id="truck5" type="truck_truck" depart="140.00" departLane="best" departSpeed="max" from="B0B1" to="D1D0" via="C3B3"/>
    <trip id="truck6" type="truck_truck" depart="168.00" departLane="best" departSpeed="max" from="E2D2" to="D1E1" via="B2C2"/>
    <trip id="truck7" type="truck_truck" depart="196.00" departLane="best" departSpeed="max" from="A1B1" to="B3B4" via="D1C1"/>
    <trip id="truck8" type="truck_truck" depart="224.00" departLane="best" departSpeed="max" from="E3D3" to="D3E3" via="B2C2"/>
    <trip id="truck9" type="truck_truck" depart="252.00" departLane="best" departSpeed="max" from="C0C1" to="D1D0" via="D3C3"/>
    <trip id="truck10" type="truck_truck" depart="280.00" departLane="best" departSpeed="max" from="B4B3" to="B3B4" via="B1B2"/>
    <trip id="truck11" type="truck_truck" depart="308.00" departLane="best" departSpeed="max" from="E3D3" to="D2E2" via="B3C3"/>
    <trip id="truck12" type="truck_truck" depart="336.00" departLane="best" departSpeed="max" from="B4B3" to="D2E2" via="B1B2"/>
    <trip id="truck13" type="truck_truck" depart="364.00" departLane="best" departSpeed="max" from="B0B1" to="D2E2" via="B3B2"/>
    <trip id="truck14" type="truck_truck" depart="392.00" departLane="best" departSpeed="max" from="A2B2" to="C3C4" via="D1D2"/>
    <trip id="truck15" type="truck_truck" depart="420.00" departLane="best" departSpeed="max" from="B0B1" to="D1D0" via="B3B2"/>
    <trip id="truck16" type="truck_truck" depart="448.00" departLane="best" departSpeed="max" from="D0D1" to="C1C0" via="D3C3"/>
    <trip id="truck17" type="truck_truck" depart="476.00" departLane="best" departSpeed="max" from="D4D3" to="D3D4" via="C1D1"/>
    <trip id="truck18" type="truck_truck" depart="504.00" departLane="best" departSpeed="max" from="D4D3" to="D1E1" via="B1C1"/>
    <trip id="truck19" type="truck_truck" depart="532.00" departLane="best" departSpeed="max" from="A1B1" to="B3A3" via="D2C2"/>
    <trip id="truck20" type="truck_truck" depart="560.00" departLane="best" departSpeed="max" from="C0C1" to="D2E2" via="B3C3"/>
    <trip id="truck21" type="truck_truck" depart="588.00" departLane="best" departSpeed="max" from="D4D3" to="B3B4" via="D1C1"/>
    <trip id="truck22" type="truck_truck" depart="616.00" departLane="best" departSpeed="max" from="B4B3" to="B1A1" via="D1D2"/>
    <trip id="truck23" type="truck_truck" depart="644.00" departLane="best" departSpeed="max" from="E2D2" to="B1B0" via="B3B2"/>
    <trip id="truck24" type="truck_truck" depart="672.00" departLane="best" departSpeed="max" from="C0C1" to="B1A1" via="D3C3"/>
    <trip id="truck25" type="truck_truck" depart="700.00" departLane="best" departSpeed="max" from="A1B1" to="B2A2" via="D2D1"/>
    <trip id="truck26" type="truck_truck" depart="728.00" departLane="best" departSpeed="max" from="A3B3" to="B1B0" via="D3C3"/>
    <trip id="truck27" type="truck_truck" depart="756.00" departLane="best" departSpeed="max" from="B4B3" to="C3C4" via="D1D2"/>
    <trip id="truck28" type="truck_truck" depart="784.00" departLane="best" departSpeed="max" from="D0D1" to="D1D0" via="B3C3"/>
    <trip id="truck29" type="truck_truck" depart="812.00" departLane="best" departSpeed="max" from="B4B3" to="D1E1" via="B1B2"/>
    <trip id="truck30" type="truck_truck" depart="840.00" departLane="best" departSpeed="max" from="A2B2" to="B1A1" via="D2D1"/>
    <trip id="truck31" type="truck_truck" depart="868.00" departLane="best" departSpeed="max" from="D4D3" to="B3B4" via="D1C1"/>
    <trip id="truck32" type="truck_truck" depart="896.00" departLane="best" departSpeed="max" from="C4C3" to="B1A1" via="D1D2"/>
    <trip id="truck33" type="truck_truck" depart="924.00" departLane="best" departSpeed="max" from="A2B2" to="B3B4" via="D1D2"/>
    <trip id="truck34" type="truck_truck" depart="952.00" departLane="best" departSpeed="max" from="A3B3" to="B1A1" via="D1D2"/>
    <trip id="truck35" type="truck_truck" depart="980.00" departLane="best" departSpeed="max" from="A2B2" to="D1D0" via="D3D2"/>
    <trip id="truck36" type="truck_truck" depart="1008.00" departLane="best" departSpeed="max" from="B0B1" to="C1C0" via="D3D2"/>
    <trip id="truck37" type="truck_truck" depart="1036.00" departLane="best" departSpeed="max" from="A3B3" to="B2A2" via="D3C3"/>
    <trip id="truck38" type="truck_truck" depart="1064.00" departLane="best" departSpeed="max" from="D0D1" to="D3E3" via="B3C3"/>
    <trip id="truck39" type="truck_truck" depart="1092.00" departLane="best" departSpeed="max" from="B4B3" to="C3C4" via="C1D1"/>
    <trip id="truck40" type="truck_truck" depart="1120.00" departLane="best" departSpeed="max" from="D4D3" to="C3C4" via="B1B2"/>
    <trip id="truck41" type="truck_truck" depart="1148.00" departLane="best" departSpeed="max" from="E3D3" to="D3E3" via="B3C3"/>
    <trip id="truck42" type="truck_truck" depart="1176.00" departLane="best" departSpeed="max" from="D0D1" to="B1B0" via="C3D3"/>
    <trip id="truck43" type="truck_truck" depart="1204.00" departLane="best" departSpeed="max" from="C4C3" to="C3C4" via="C1D1"/>
    <trip id="truck44" type="truck_truck" depart="1232.00" departLane="best" departSpeed="max" from="B0B1" to="D1E1" via="B3B2"/>
    <trip id="truck45" type="truck_truck" depart="1260.00" departLane="best" departSpeed="max" from="D4D3" to="C3C4" via="D1C1"/>
    <trip id="truck46" type="truck_truck" depart="1288.00" departLane="best" departSpeed="max" from="E1D1" to="D1E1" via="B2B1"/>
    <trip id="truck47" type="truck_truck" depart="1316.00" departLane="best" departSpeed="max" from="B0B1" to="D1D0" via="B3C3"/>
    <trip id="truck48" type="truck_truck" depart="1344.00" departLane="best" departSpeed="max" from="E3D3" to="D3D4" via="B1B2"/>
    <trip id="truck49" type="truck_truck" depart="1372.00" departLane="best" departSpeed="max" from="E3D3" to="D3E3" via="B2B1"/>
    <trip id="truck50" type="truck_truck" depart="1400.00" departLane="best" departSpeed="max" from="B4B3" to="C3C4" via="C1D1"/>
    <trip id="truck51" type="truck_truck" depart="1428.00" departLane="best" departSpeed="max" from="A3B3" to="B2A2" via="D2C2"/>
    <trip id="truck52" type="truck_truck" depart="1456.00" departLane="best" departSpeed="max" from="E1D1" to="D1E1" via="B3B2"/>
    <trip id="truck53" type="truck_truck" depart="1484.00" departLane="best" departSpeed="max" from="B4B3" to="C3C4" via="C1D1"/>
    <trip id="truck54" type="truck_truck" depart="1512.00" departLane="best" departSpeed="max" from="E3D3" to="D1D0" via="B3B2"/>
    <trip id="truck55" type="truck_truck" depart="1540.00" departLane="best" departSpeed="max" from="D4D3" to="D3E3" via="B1C1"/>
    <trip id="truck56" type="truck_truck" depart="1568.00" departLane="best" departSpeed="max" from="D4D3" to="D3D4" via="C1C2"/>
    <trip id="truck57" type="truck_truck" depart="1596.00" departLane="best" departSpeed="max" from="A2B2" to="B2A2" via="D2D1"/>
    <trip id="truck58" type="truck_truck" depart="1624.00" departLane="best" departSpeed="max" from="D0D1" to="D1D0" via="C3D3"/>
    <trip id="truck59" type="truck_truck" depart="1652.00" departLane="best" departSpeed="max" from="E1D1" to="D1E1" via="B3B2"/>
    <trip id="truck60" type="truck_truck" depart="1680.00" departLane="best" departSpeed="max" from="E2D2" to="D1D0" via="B3C3"/>
    <trip id="truck61" type="truck_truck" depart="1708.00" departLane="best" from="D1D2" to="D1D0" via="B3B2"/>
    <trip id="truck62" type="truck_truck" depart="1736.00" departLane="best" departSpeed="max" from="C0C1" to="B1B0" via="C3D3"/>
    <trip id="truck63" type="truck_truck" depart="1764.00" departLane="best" departSpeed="max" from="D4D3" to="B2A2" via="D1C1"/>
    <trip id="truck64" type="truck_truck" depart="1792.00" departLane="best" departSpeed="max" from="A3B3" to="B3A3" via="D1D2"/>
</routes>
