<?xml version="1.0" encoding="UTF-8"?>

<!-- generated on 06/08/20 17:47:56 by Eclipse SUMO duarouter Version 1.6.0
<configuration xmlns:xsi="http://www.w3.org/2001/XMLSchema-instance" xsi:noNamespaceSchemaLocation="http://sumo.dlr.de/xsd/duarouterConfiguration.xsd">

    <input>
        <net-file value="optimal.net.xml"/>
        <route-files value="optimal.bicycle.trips.xml"/>
    </input>

    <output>
        <output-file value="optimal.bicycle.rou.xml"/>
        <alternatives-output value="optimal.bicycle.rou.alt.xml"/>
    </output>

    <time>
        <begin value="0"/>
        <end value="1800.0"/>
    </time>

    <report>
        <no-warnings value="true"/>
        <ignore-errors value="true"/>
        <no-step-log value="true"/>
    </report>

</configuration>
-->

<routes xmlns:xsi="http://www.w3.org/2001/XMLSchema-instance" xsi:noNamespaceSchemaLocation="http://sumo.dlr.de/xsd/routes_file.xsd">
    <vType id="bike_bicycle" vClass="bicycle"/>
    <vehicle id="bike0" type="bike_bicycle" depart="0.00" departLane="best" departSpeed="max">
        <route edges="C4C3 C3B3 B3B2 B2B1 B1A1"/>
    </vehicle>
    <vehicle id="bike1" type="bike_bicycle" depart="8.00" departLane="best">
        <route edges="B3B2 B2C2"/>
    </vehicle>
    <vehicle id="bike2" type="bike_bicycle" depart="16.00" departLane="best">
        <route edges="D2C2 C2C1 C1D1 D1D0"/>
    </vehicle>
    <vehicle id="bike3" type="bike_bicycle" depart="24.00" departLane="best" departSpeed="max">
        <route edges="E1D1 D1C1 C1B1 B1B2"/>
    </vehicle>
    <vehicle id="bike4" type="bike_bicycle" depart="32.00" departLane="best">
        <route edges="C1C2 C2B2 B2B1 B1A1"/>
    </vehicle>
    <vehicle id="bike5" type="bike_bicycle" depart="40.00" departLane="best">
        <route edges="B2B1 B1C1 C1C2 C2C3"/>
    </vehicle>
    <vehicle id="bike6" type="bike_bicycle" depart="48.00" departLane="best" departSpeed="max">
        <route edges="A1B1 B1B2 B2B3"/>
    </vehicle>
    <vehicle id="bike7" type="bike_bicycle" depart="56.00" departLane="best" departSpeed="max">
        <route edges="D0D1 D1C1 C1C2 C2C3 C3B3"/>
    </vehicle>
    <vehicle id="bike8" type="bike_bicycle" depart="64.00" departLane="best">
        <route edges="B2B1 B1C1 C1C2 C2C3 C3C4"/>
    </vehicle>
    <vehicle id="bike9" type="bike_bicycle" depart="72.00" departLane="best">
        <route edges="D3C3 C3C2 C2B2 B2B1 B1A1"/>
    </vehicle>
    <vehicle id="bike10" type="bike_bicycle" depart="80.00" departLane="best">
        <route edges="D3C3 C3C2 C2D2 D2D1 D1D0"/>
    </vehicle>
    <vehicle id="bike11" type="bike_bicycle" depart="88.00" departLane="best" departSpeed="max">
        <route edges="B4B3 B3B2 B2A2"/>
    </vehicle>
    <vehicle id="bike12" type="bike_bicycle" depart="96.00" departLane="best" departSpeed="max">
        <route edges="E2D2 D2C2 C2B2 B2B3 B3C3"/>
    </vehicle>
    <vehicle id="bike13" type="bike_bicycle" depart="104.00" departLane="best" departSpeed="max">
        <route edges="A3B3 B3B2 B2C2 C2C1 C1B1 B1B2"/>
    </vehicle>
    <vehicle id="bike14" type="bike_bicycle" depart="112.00" departLane="best" departSpeed="max">
        <route edges="D4D3 D3C3 C3C4"/>
    </vehicle>
    <vehicle id="bike15" type="bike_bicycle" depart="120.00" departLane="best">
        <route edges="D3C3 C3C2 C2D2 D2D1 D1E1"/>
    </vehicle>
    <vehicle id="bike16" type="bike_bicycle" depart="128.00" departLane="best">
        <route edges="C2D2 D2D3 D3E3"/>
    </vehicle>
    <vehicle id="bike17" type="bike_bicycle" depart="136.00" departLane="best" departSpeed="max">
        <route edges="C0C1 C1C2 C2C3 C3B3"/>
    </vehicle>
    <vehicle id="bike18" type="bike_bicycle" depart="144.00" departLane="best">
        <route edges="D3D2 D2C2 C2C3 C3C4"/>
    </vehicle>
    <vehicle id="bike19" type="bike_bicycle" depart="152.00" departLane="best" departSpeed="max">
        <route edges="D4D3 D3C3 C3C2"/>
    </vehicle>
    <vehicle id="bike20" type="bike_bicycle" depart="160.00" departLane="best">
        <route edges="D1C1 C1B1 B1B0"/>
    </vehicle>
    <vehicle id="bike21" type="bike_bicycle" depart="168.00" departLane="best">
        <route edges="B2B1 B1C1 C1C2 C2C3 C3B3 B3B2"/>
    </vehicle>
    <vehicle id="bike22" type="bike_bicycle" depart="176.00" departLane="best" departSpeed="max">
        <route edges="A2B2 B2B3 B3A3"/>
    </vehicle>
    <vehicle id="bike23" type="bike_bicycle" depart="184.00" departLane="best" departSpeed="max">
        <route edges="A3B3 B3B2"/>
    </vehicle>
    <vehicle id="bike24" type="bike_bicycle" depart="192.00" departLane="best" departSpeed="max">
        <route edges="C4C3 C3C2 C2C1 C1B1"/>
    </vehicle>
    <vehicle id="bike25" type="bike_bicycle" depart="200.00" departLane="best" departSpeed="max">
        <route edges="C0C1 C1B1 B1B2 B2C2"/>
    </vehicle>
    <vehicle id="bike26" type="bike_bicycle" depart="208.00" departLane="best">
        <route edges="B2C2 C2C3 C3D3 D3D4"/>
    </vehicle>
    <vehicle id="bike27" type="bike_bicycle" depart="216.00" departLane="best" departSpeed="max">
        <route edges="D0D1 D1C1 C1C2 C2C3 C3C4"/>
    </vehicle>
    <vehicle id="bike28" type="bike_bicycle" depart="224.00" departLane="best">
        <route edges="B1B2 B2C2 C2C1 C1D1 D1D2"/>
    </vehicle>
    <vehicle id="bike29" type="bike_bicycle" depart="232.00" departLane="best" departSpeed="max">
        <route edges="B0B1 B1C1 C1C0"/>
    </vehicle>
    <vehicle id="bike30" type="bike_bicycle" depart="240.00" departLane="best" departSpeed="max">
        <route edges="E3D3 D3D2 D2C2 C2C3 C3D3"/>
    </vehicle>
    <vehicle id="bike31" type="bike_bicycle" depart="248.00" departLane="best">
        <route edges="C3B3 B3B2 B2C2 C2C1 C1D1 D1D0"/>
    </vehicle>
    <vehicle id="bike32" type="bike_bicycle" depart="256.00" departLane="best" departSpeed="max">
        <route edges="D4D3 D3D2 D2C2"/>
    </vehicle>
    <vehicle id="bike33" type="bike_bicycle" depart="264.00" departLane="best">
        <route edges="B2B1 B1A1"/>
    </vehicle>
    <vehicle id="bike34" type="bike_bicycle" depart="272.00" departLane="best" departSpeed="max">
        <route edges="B4B3 B3A3"/>
    </vehicle>
    <vehicle id="bike35" type="bike_bicycle" depart="280.00" departLane="best">
        <route edges="B2B1 B1C1 C1C2 C2C3 C3D3 D3D4"/>
    </vehicle>
    <vehicle id="bike36" type="bike_bicycle" depart="288.00" departLane="best" departSpeed="max">
        <route edges="E1D1 D1D2 D2C2 C2C3 C3B3 B3B4"/>
    </vehicle>
    <vehicle id="bike37" type="bike_bicycle" depart="296.00" departLane="best" departSpeed="max">
        <route edges="D0D1 D1C1 C1C0"/>
    </vehicle>
    <vehicle id="bike38" type="bike_bicycle" depart="304.00" departLane="best" departSpeed="max">
        <route edges="E1D1 D1D2 D2C2 C2B2"/>
    </vehicle>
    <vehicle id="bike39" type="bike_bicycle" depart="312.00" departLane="best">
        <route edges="B2C2 C2C3 C3B3 B3A3"/>
    </vehicle>
    <vehicle id="bike40" type="bike_bicycle" depart="320.00" departLane="best">
        <route edges="C3B3 B3A3"/>
    </vehicle>
    <vehicle id="bike41" type="bike_bicycle" depart="328.00" departLane="best">
        <route edges="C3D3 D3D2"/>
    </vehicle>
    <vehicle id="bike42" type="bike_bicycle" depart="336.00" departLane="best">
        <route edges="C1B1 B1B2 B2C2"/>
    </vehicle>
    <vehicle id="bike43" type="bike_bicycle" depart="344.00" departLane="best" departSpeed="max">
        <route edges="E3D3 D3D2 D2C2 C2C3"/>
    </vehicle>
    <vehicle id="bike44" type="bike_bicycle" depart="352.00" departLane="best" departSpeed="max">
        <route edges="A3B3 B3B2 B2B1 B1B0"/>
    </vehicle>
    <vehicle id="bike45" type="bike_bicycle" depart="360.00" departLane="best" departSpeed="max">
        <route edges="A3B3 B3C3 C3D3"/>
    </vehicle>
    <vehicle id="bike46" type="bike_bicycle" depart="368.00" departLane="best">
        <route edges="D3C3 C3C2 C2D2 D2D1 D1C1 C1C2"/>
    </vehicle>
    <vehicle id="bike47" type="bike_bicycle" depart="376.00" departLane="best" departSpeed="max">
        <route edges="A2B2 B2B1 B1C1 C1C0"/>
    </vehicle>
    <vehicle id="bike48" type="bike_bicycle" depart="384.00" departLane="best" departSpeed="max">
        <route edges="E3D3 D3C3 C3C2 C2D2"/>
    </vehicle>
    <vehicle id="bike49" type="bike_bicycle" depart="392.00" departLane="best" departSpeed="max">
        <route edges="E3D3 D3D2 D2E2"/>
    </vehicle>
    <vehicle id="bike50" type="bike_bicycle" depart="400.00" departLane="best" departSpeed="max">
        <route edges="A1B1 B1C1 C1D1 D1D2"/>
    </vehicle>
    <vehicle id="bike51" type="bike_bicycle" depart="408.00" departLane="best" departSpeed="max">
        <route edges="D0D1 D1C1 C1C2 C2D2"/>
    </vehicle>
    <vehicle id="bike52" type="bike_bicycle" depart="416.00" departLane="best">
        <route edges="B2C2 C2C3 C3D3"/>
    </vehicle>
    <vehicle id="bike53" type="bike_bicycle" depart="424.00" departLane="best" departSpeed="max">
        <route edges="A3B3 B3B2 B2B1 B1C1 C1C2"/>
    </vehicle>
    <vehicle id="bike54" type="bike_bicycle" depart="432.00" departLane="best">
        <route edges="C1D1 D1D2 D2D3 D3D4"/>
    </vehicle>
    <vehicle id="bike55" type="bike_bicycle" depart="440.00" departLane="best" departSpeed="max">
        <route edges="E1D1 D1D2 D2C2 C2B2 B2B3 B3A3"/>
    </vehicle>
    <vehicle id="bike56" type="bike_bicycle" depart="448.00" departLane="best">
        <route edges="C2C3 C3B3 B3B2 B2B1"/>
    </vehicle>
    <vehicle id="bike57" type="bike_bicycle" depart="456.00" departLane="best" departSpeed="max">
        <route edges="E1D1 D1D2 D2E2"/>
    </vehicle>
    <vehicle id="bike58" type="bike_bicycle" depart="464.00" departLane="best">
        <route edges="B3C3 C3D3"/>
    </vehicle>
    <vehicle id="bike59" type="bike_bicycle" depart="472.00" departLane="best" departSpeed="max">
        <route edges="C4C3 C3B3 B3B2 B2A2"/>
    </vehicle>
    <vehicle id="bike60" type="bike_bicycle" depart="480.00" departLane="best">
        <route edges="D2D1 D1C1 C1C2 C2D2"/>
    </vehicle>
    <vehicle id="bike61" type="bike_bicycle" depart="488.00" departLane="best">
        <route edges="D2D3 D3C3 C3C2 C2D2"/>
    </vehicle>
    <vehicle id="bike62" type="bike_bicycle" depart="496.00" departLane="best" departSpeed="max">
        <route edges="A1B1 B1B2 B2B3 B3B4"/>
    </vehicle>
    <vehicle id="bike63" type="bike_bicycle" depart="504.00" departLane="best" departSpeed="max">
        <route edges="A1B1 B1B2 B2C2 C2C3 C3D3 D3D4"/>
    </vehicle>
    <vehicle id="bike64" type="bike_bicycle" depart="512.00" departLane="best" departSpeed="max">
        <route edges="E1D1 D1D2 D2D3"/>
    </vehicle>
    <vehicle id="bike65" type="bike_bicycle" depart="520.00" departLane="best">
        <route edges="B3C3 C3C2 C2C1 C1B1 B1B0"/>
    </vehicle>
    <vehicle id="bike66" type="bike_bicycle" depart="528.00" departLane="best" departSpeed="max">
        <route edges="E1D1 D1D2 D2D3 D3D4"/>
    </vehicle>
    <vehicle id="bike67" type="bike_bicycle" depart="536.00" departLane="best" departSpeed="max">
        <route edges="A3B3 B3B2 B2C2 C2C1"/>
    </vehicle>
    <vehicle id="bike68" type="bike_bicycle" depart="544.00" departLane="best" departSpeed="max">
        <route edges="A2B2 B2B1 B1C1 C1D1 D1E1"/>
    </vehicle>
    <vehicle id="bike69" type="bike_bicycle" depart="552.00" departLane="best">
        <route edges="D2D1 D1C1 C1B1 B1B2 B2A2"/>
    </vehicle>
    <vehicle id="bike70" type="bike_bicycle" depart="560.00" departLane="best">
        <route edges="C2B2 B2B1 B1C1 C1C2 C2C3 C3B3"/>
    </vehicle>
    <vehicle id="bike71" type="bike_bicycle" depart="568.00" departLane="best">
        <route edges="B2C2 C2D2 D2E2"/>
    </vehicle>
    <vehicle id="bike72" type="bike_bicycle" depart="576.00" departLane="best">
        <route edges="C1C2 C2C3 C3B3 B3B2 B2C2"/>
    </vehicle>
    <vehicle id="bike73" type="bike_bicycle" depart="584.00" departLane="best">
        <route edges="C2D2 D2D1 D1E1"/>
    </vehicle>
    <vehicle id="bike74" type="bike_bicycle" depart="592.00" departLane="best">
        <route edges="B1C1 C1C2 C2B2 B2B3 B3B4"/>
    </vehicle>
    <vehicle id="bike75" type="bike_bicycle" depart="600.00" departLane="best" departSpeed="max">
        <route edges="E3D3 D3D2 D2D1 D1C1"/>
    </vehicle>
    <vehicle id="bike76" type="bike_bicycle" depart="608.00" departLane="best">
        <route edges="C1D1 D1D2 D2C2 C2C3"/>
    </vehicle>
    <vehicle id="bike77" type="bike_bicycle" depart="616.00" departLane="best" departSpeed="max">
        <route edges="A3B3 B3B2 B2C2"/>
    </vehicle>
    <vehicle id="bike78" type="bike_bicycle" depart="624.00" departLane="best" departSpeed="max">
        <route edges="B4B3 B3C3 C3C4"/>
    </vehicle>
    <vehicle id="bike79" type="bike_bicycle" depart="632.00" departLane="best">
        <route edges="B2B3 B3C3 C3C2 C2C1 C1B1 B1B2 B2C2"/>
    </vehicle>
    <vehicle id="bike80" type="bike_bicycle" depart="640.00" departLane="best" departSpeed="max">
        <route edges="A2B2 B2B3 B3C3 C3D3"/>
    </vehicle>
    <vehicle id="bike81" type="bike_bicycle" depart="648.00" departLane="best">
        <route edges="B2B1 B1C1 C1C2 C2C3 C3D3 D3D2"/>
    </vehicle>
    <vehicle id="bike82" type="bike_bicycle" depart="656.00" departLane="best" departSpeed="max">
        <route edges="D4D3 D3C3 C3C2 C2C1 C1B1 B1B0"/>
    </vehicle>
    <vehicle id="bike83" type="bike_bicycle" depart="664.00" departLane="best">
        <route edges="B2B3 B3C3 C3C2 C2D2 D2D1 D1D0"/>
    </vehicle>
    <vehicle id="bike84" type="bike_bicycle" depart="672.00" departLane="best">
        <route edges="B2B1 B1C1 C1C2 C2B2 B2A2"/>
    </vehicle>
    <vehicle id="bike85" type="bike_bicycle" depart="680.00" departLane="best" departSpeed="max">
        <route edges="E2D2 D2D3 D3C3 C3C2"/>
    </vehicle>
    <vehicle id="bike86" type="bike_bicycle" depart="688.00" departLane="best">
        <route edges="C2B2 B2B3 B3C3 C3D3 D3D2 D2C2"/>
    </vehicle>
    <vehicle id="bike87" type="bike_bicycle" depart="696.00" departLane="best">
        <route edges="D3C3 C3C2 C2B2 B2B3"/>
    </vehicle>
    <vehicle id="bike88" type="bike_bicycle" depart="704.00" departLane="best" departSpeed="max">
        <route edges="A3B3 B3B2 B2B1 B1C1 C1C2"/>
    </vehicle>
    <vehicle id="bike89" type="bike_bicycle" depart="712.00" departLane="best">
        <route edges="C1C2 C2B2"/>
    </vehicle>
    <vehicle id="bike90" type="bike_bicycle" depart="720.00" departLane="best">
        <route edges="D1D2 D2C2 C2C1 C1D1 D1D0"/>
    </vehicle>
    <vehicle id="bike91" type="bike_bicycle" depart="728.00" departLane="best" departSpeed="max">
        <route edges="E3D3 D3D2 D2C2 C2C1 C1B1 B1B2"/>
    </vehicle>
    <vehicle id="bike92" type="bike_bicycle" depart="736.00" departLane="best">
        <route edges="C1B1 B1B2 B2B3 B3C3"/>
    </vehicle>
    <vehicle id="bike93" type="bike_bicycle" depart="744.00" departLane="best" departSpeed="max">
        <route edges="D4D3 D3C3 C3B3 B3A3"/>
    </vehicle>
    <vehicle id="bike94" type="bike_bicycle" depart="752.00" departLane="best">
        <route edges="B1C1 C1D1"/>
    </vehicle>
    <vehicle id="bike95" type="bike_bicycle" depart="760.00" departLane="best">
        <route edges="C1C2 C2C3 C3B3 B3B2"/>
    </vehicle>
    <vehicle id="bike96" type="bike_bicycle" depart="768.00" departLane="best">
        <route edges="B2B3 B3C3 C3D3 D3D4"/>
    </vehicle>
    <vehicle id="bike97" type="bike_bicycle" depart="776.00" departLane="best">
        <route edges="C1D1 D1D2 D2E2"/>
    </vehicle>
    <vehicle id="bike98" type="bike_bicycle" depart="784.00" departLane="best">
        <route edges="C3B3 B3B2 B2B1 B1B0"/>
    </vehicle>
    <vehicle id="bike99" type="bike_bicycle" depart="792.00" departLane="best" departSpeed="max">
        <route edges="E3D3 D3D2 D2E2"/>
    </vehicle>
    <vehicle id="bike100" type="bike_bicycle" depart="800.00" departLane="best" departSpeed="max">
        <route edges="E3D3 D3D4"/>
    </vehicle>
    <vehicle id="bike101" type="bike_bicycle" depart="808.00" departLane="best" departSpeed="max">
        <route edges="D4D3 D3C3 C3C2 C2B2 B2A2"/>
    </vehicle>
    <vehicle id="bike102" type="bike_bicycle" depart="816.00" departLane="best">
        <route edges="C2C1 C1B1 B1B2 B2C2"/>
    </vehicle>
    <vehicle id="bike103" type="bike_bicycle" depart="824.00" departLane="best">
        <route edges="C1B1 B1B0"/>
    </vehicle>
    <vehicle id="bike104" type="bike_bicycle" depart="832.00" departLane="best" departSpeed="max">
        <route edges="C0C1 C1D1 D1D2 D2D3 D3E3"/>
    </vehicle>
    <vehicle id="bike105" type="bike_bicycle" depart="840.00" departLane="best">
        <route edges="B2C2 C2C3 C3D3 D3D2 D2C2"/>
    </vehicle>
    <vehicle id="bike106" type="bike_bicycle" depart="848.00" departLane="best">
        <route edges="C1D1 D1D2 D2C2 C2B2 B2B1 B1C1 C1C2"/>
    </vehicle>
    <vehicle id="bike107" type="bike_bicycle" depart="856.00" departLane="best" departSpeed="max">
        <route edges="E2D2 D2D3 D3E3"/>
    </vehicle>
    <vehicle id="bike108" type="bike_bicycle" depart="864.00" departLane="best">
        <route edges="C3B3 B3B2 B2C2 C2C1 C1D1 D1D2"/>
    </vehicle>
    <vehicle id="bike109" type="bike_bicycle" depart="872.00" departLane="best" departSpeed="max">
        <route edges="B0B1 B1B2 B2B3 B3B4"/>
    </vehicle>
    <vehicle id="bike110" type="bike_bicycle" depart="880.00" departLane="best" departSpeed="max">
        <route edges="E3D3 D3C3 C3C2"/>
    </vehicle>
    <vehicle id="bike111" type="bike_bicycle" depart="888.00" departLane="best">
        <route edges="C3B3 B3B2 B2C2 C2D2 D2D1 D1E1"/>
    </vehicle>
    <vehicle id="bike112" type="bike_bicycle" depart="896.00" departLane="best" departSpeed="max">
        <route edges="A2B2 B2B3 B3C3 C3C4"/>
    </vehicle>
    <vehicle id="bike113" type="bike_bicycle" depart="904.00" departLane="best">
        <route edges="C2C3 C3D3 D3D2 D2E2"/>
    </vehicle>
    <vehicle id="bike114" type="bike_bicycle" depart="912.00" departLane="best" departSpeed="max">
        <route edges="B0B1 B1C1 C1C2 C2D2 D2D3 D3E3"/>
    </vehicle>
    <vehicle id="bike115" type="bike_bicycle" depart="920.00" departLane="best" departSpeed="max">
        <route edges="A2B2 B2B1"/>
    </vehicle>
    <vehicle id="bike116" type="bike_bicycle" depart="928.00" departLane="best">
        <route edges="C3D3 D3D2 D2D1 D1D0"/>
    </vehicle>
    <vehicle id="bike117" type="bike_bicycle" depart="936.00" departLane="best">
        <route edges="B2B3 B3C3 C3C2 C2B2 B2B1 B1C1"/>
    </vehicle>
    <vehicle id="bike118" type="bike_bicycle" depart="944.00" departLane="best" departSpeed="max">
        <route edges="E1D1 D1D2 D2C2 C2B2 B2B3 B3A3"/>
    </vehicle>
    <vehicle id="bike119" type="bike_bicycle" depart="952.00" departLane="best">
        <route edges="C3D3 D3D2 D2C2 C2C3 C3C4"/>
    </vehicle>
    <vehicle id="bike120" type="bike_bicycle" depart="960.00" departLane="best">
        <route edges="C1C2 C2C3 C3C4"/>
    </vehicle>
    <vehicle id="bike121" type="bike_bicycle" depart="968.00" departLane="best">
        <route edges="C2D2 D2D3 D3D4"/>
    </vehicle>
    <vehicle id="bike122" type="bike_bicycle" depart="976.00" departLane="best">
        <route edges="B1C1 C1D1 D1D2"/>
    </vehicle>
    <vehicle id="bike123" type="bike_bicycle" depart="984.00" departLane="best">
        <route edges="B2B3 B3C3 C3C2 C2C1 C1C0"/>
    </vehicle>
    <vehicle id="bike124" type="bike_bicycle" depart="992.00" departLane="best" departSpeed="max">
        <route edges="D0D1 D1C1 C1C2 C2B2 B2B3 B3B4"/>
    </vehicle>
    <vehicle id="bike125" type="bike_bicycle" depart="1000.00" departLane="best" departSpeed="max">
        <route edges="B4B3 B3C3 C3C2 C2D2 D2D1 D1E1"/>
    </vehicle>
    <vehicle id="bike126" type="bike_bicycle" depart="1008.00" departLane="best" departSpeed="max">
        <route edges="A2B2 B2B1 B1C1 C1D1"/>
    </vehicle>
    <vehicle id="bike127" type="bike_bicycle" depart="1016.00" departLane="best" departSpeed="max">
        <route edges="E3D3 D3D2 D2C2 C2C3 C3D3 D3E3"/>
    </vehicle>
    <vehicle id="bike128" type="bike_bicycle" depart="1024.00" departLane="best" departSpeed="max">
        <route edges="A2B2 B2C2"/>
    </vehicle>
    <vehicle id="bike129" type="bike_bicycle" depart="1032.00" departLane="best">
        <route edges="B2C2 C2C3 C3D3 D3D4"/>
    </vehicle>
    <vehicle id="bike130" type="bike_bicycle" depart="1040.00" departLane="best" departSpeed="max">
        <route edges="E1D1 D1D2 D2D3 D3C3"/>
    </vehicle>
    <vehicle id="bike131" type="bike_bicycle" depart="1048.00" departLane="best" departSpeed="max">
        <route edges="C0C1 C1B1 B1B2 B2A2"/>
    </vehicle>
    <vehicle id="bike132" type="bike_bicycle" depart="1056.00" departLane="best" departSpeed="max">
        <route edges="D4D3 D3D2 D2D1 D1D0"/>
    </vehicle>
    <vehicle id="bike133" type="bike_bicycle" depart="1064.00" departLane="best" departSpeed="max">
        <route edges="C4C3 C3D3 D3E3"/>
    </vehicle>
    <vehicle id="bike134" type="bike_bicycle" depart="1072.00" departLane="best" departSpeed="max">
        <route edges="D0D1 D1C1 C1B1 B1A1"/>
    </vehicle>
    <vehicle id="bike135" type="bike_bicycle" depart="1080.00" departLane="best">
        <route edges="D3D2 D2C2 C2C3 C3B3 B3B4"/>
    </vehicle>
    <vehicle id="bike136" type="bike_bicycle" depart="1088.00" departLane="best" departSpeed="max">
        <route edges="D0D1 D1D2 D2D3 D3D4"/>
    </vehicle>
    <vehicle id="bike137" type="bike_bicycle" depart="1096.00" departLane="best" departSpeed="max">
        <route edges="B0B1 B1C1"/>
    </vehicle>
    <vehicle id="bike138" type="bike_bicycle" depart="1104.00" departLane="best" departSpeed="max">
        <route edges="A3B3 B3B2 B2C2 C2C3 C3B3"/>
    </vehicle>
    <vehicle id="bike139" type="bike_bicycle" depart="1112.00" departLane="best">
        <route edges="B3B2 B2C2 C2C3 C3C4"/>
    </vehicle>
    <vehicle id="bike140" type="bike_bicycle" depart="1120.00" departLane="best">
        <route edges="D1D2 D2C2 C2B2 B2B3"/>
    </vehicle>
    <vehicle id="bike141" type="bike_bicycle" depart="1128.00" departLane="best" departSpeed="max">
        <route edges="C4C3 C3B3 B3A3"/>
    </vehicle>
    <vehicle id="bike142" type="bike_bicycle" depart="1136.00" departLane="best">
        <route edges="C2C1 C1B1 B1B2 B2C2 C2C3 C3D3 D3D2"/>
    </vehicle>
    <vehicle id="bike143" type="bike_bicycle" depart="1144.00" departLane="best" departSpeed="max">
        <route edges="D4D3 D3C3 C3C2 C2C1 C1B1 B1B2"/>
    </vehicle>
    <vehicle id="bike144" type="bike_bicycle" depart="1152.00" departLane="best">
        <route edges="C1C2 C2C3 C3B3 B3B2"/>
    </vehicle>
    <vehicle id="bike145" type="bike_bicycle" depart="1160.00" departLane="best" departSpeed="max">
        <route edges="A1B1 B1C1 C1D1 D1D2 D2C2"/>
    </vehicle>
    <vehicle id="bike146" type="bike_bicycle" depart="1168.00" departLane="best" departSpeed="max">
        <route edges="C4C3 C3B3 B3A3"/>
    </vehicle>
    <vehicle id="bike147" type="bike_bicycle" depart="1176.00" departLane="best">
        <route edges="D2C2 C2C3 C3B3"/>
    </vehicle>
    <vehicle id="bike148" type="bike_bicycle" depart="1184.00" departLane="best">
        <route edges="C1C2 C2B2 B2B1 B1A1"/>
    </vehicle>
    <vehicle id="bike149" type="bike_bicycle" depart="1192.00" departLane="best" departSpeed="max">
        <route edges="A2B2 B2C2 C2D2 D2D3 D3C3"/>
    </vehicle>
    <vehicle id="bike150" type="bike_bicycle" depart="1200.00" departLane="best" departSpeed="max">
        <route edges="E1D1 D1D2 D2C2 C2C3 C3B3"/>
    </vehicle>
    <vehicle id="bike151" type="bike_bicycle" depart="1208.00" departLane="best" departSpeed="max">
        <route edges="D4D3 D3C3 C3C2"/>
    </vehicle>
    <vehicle id="bike152" type="bike_bicycle" depart="1216.00" departLane="best" departSpeed="max">
        <route edges="B0B1 B1B2 B2A2"/>
    </vehicle>
    <vehicle id="bike153" type="bike_bicycle" depart="1224.00" departLane="best">
        <route edges="B3C3 C3D3 D3D2"/>
    </vehicle>
    <vehicle id="bike154" type="bike_bicycle" depart="1232.00" departLane="best">
        <route edges="D3C3 C3C2 C2D2 D2E2"/>
    </vehicle>
    <vehicle id="bike155" type="bike_bicycle" depart="1240.00" departLane="best" departSpeed="max">
        <route edges="E1D1 D1C1 C1B1 B1B2 B2C2"/>
    </vehicle>
    <vehicle id="bike156" type="bike_bicycle" depart="1248.00" departLane="best">
        <route edges="B2B3 B3C3 C3C2 C2C1 C1B1 B1B2"/>
    </vehicle>
    <vehicle id="bike157" type="bike_bicycle" depart="1256.00" departLane="best">
        <route edges="D2D3 D3C3"/>
    </vehicle>
    <vehicle id="bike158" type="bike_bicycle" depart="1264.00" departLane="best">
        <route edges="C1B1 B1B2 B2B3 B3C3 C3C4"/>
    </vehicle>
    <vehicle id="bike159" type="bike_bicycle" depart="1272.00" departLane="best" departSpeed="max">
        <route edges="B0B1 B1C1 C1C2 C2C3 C3D3 D3D4"/>
    </vehicle>
    <vehicle id="bike160" type="bike_bicycle" depart="1280.00" departLane="best" departSpeed="max">
        <route edges="D4D3 D3E3"/>
    </vehicle>
    <vehicle id="bike161" type="bike_bicycle" depart="1288.00" departLane="best">
        <route edges="D3C3"/>
    </vehicle>
    <vehicle id="bike162" type="bike_bicycle" depart="1296.00" departLane="best" departSpeed="max">
        <route edges="A1B1 B1C1 C1D1 D1E1"/>
    </vehicle>
    <vehicle id="bike163" type="bike_bicycle" depart="1304.00" departLane="best" departSpeed="max">
        <route edges="B4B3 B3C3 C3D3 D3D4"/>
    </vehicle>
    <vehicle id="bike164" type="bike_bicycle" depart="1312.00" departLane="best">
        <route edges="D3C3 C3C2 C2D2 D2E2"/>
    </vehicle>
    <vehicle id="bike165" type="bike_bicycle" depart="1320.00" departLane="best">
        <route edges="D3C3 C3B3 B3A3"/>
    </vehicle>
    <vehicle id="bike166" type="bike_bicycle" depart="1328.00" departLane="best">
        <route edges="D2D3 D3C3 C3C2 C2B2 B2B1 B1C1"/>
    </vehicle>
    <vehicle id="bike167" type="bike_bicycle" depart="1336.00" departLane="best" departSpeed="max">
        <route edges="D4D3 D3D2 D2E2"/>
    </vehicle>
    <vehicle id="bike168" type="bike_bicycle" depart="1344.00" departLane="best">
        <route edges="B2B1 B1C1 C1C2 C2D2 D2D3"/>
    </vehicle>
    <vehicle id="bike169" type="bike_bicycle" depart="1352.00" departLane="best">
        <route edges="C2B2 B2B3 B3B4"/>
    </vehicle>
    <vehicle id="bike170" type="bike_bicycle" depart="1360.00" departLane="best">
        <route edges="D3C3 C3B3 B3B2 B2C2"/>
    </vehicle>
    <vehicle id="bike171" type="bike_bicycle" depart="1368.00" departLane="best" departSpeed="max">
        <route edges="A1B1 B1B2 B2B3"/>
    </vehicle>
    <vehicle id="bike172" type="bike_bicycle" depart="1376.00" departLane="best" departSpeed="max">
        <route edges="B4B3 B3C3 C3D3 D3D2 D2E2"/>
    </vehicle>
    <vehicle id="bike173" type="bike_bicycle" depart="1384.00" departLane="best" departSpeed="max">
        <route edges="E3D3 D3C3 C3B3 B3B2"/>
    </vehicle>
    <vehicle id="bike174" type="bike_bicycle" depart="1392.00" departLane="best" departSpeed="max">
        <route edges="C4C3 C3C2 C2C1 C1C0"/>
    </vehicle>
    <vehicle id="bike175" type="bike_bicycle" depart="1400.00" departLane="best" departSpeed="max">
        <route edges="E3D3 D3C3 C3C2 C2D2"/>
    </vehicle>
    <vehicle id="bike176" type="bike_bicycle" depart="1408.00" departLane="best" departSpeed="max">
        <route edges="E2D2 D2C2 C2B2 B2B1 B1C1"/>
    </vehicle>
    <vehicle id="bike177" type="bike_bicycle" depart="1416.00" departLane="best" departSpeed="max">
        <route edges="E3D3 D3D2 D2C2 C2B2 B2B1"/>
    </vehicle>
    <vehicle id="bike178" type="bike_bicycle" depart="1424.00" departLane="best" departSpeed="max">
        <route edges="E3D3 D3C3 C3B3 B3A3"/>
    </vehicle>
    <vehicle id="bike179" type="bike_bicycle" depart="1432.00" departLane="best" departSpeed="max">
        <route edges="A3B3 B3B2 B2B1 B1C1 C1C2"/>
    </vehicle>
    <vehicle id="bike180" type="bike_bicycle" depart="1440.00" departLane="best">
        <route edges="D1D2 D2C2 C2C3 C3B3 B3B4"/>
    </vehicle>
    <vehicle id="bike181" type="bike_bicycle" depart="1448.00" departLane="best" departSpeed="max">
        <route edges="C4C3 C3D3 D3D2 D2C2 C2C3"/>
    </vehicle>
    <vehicle id="bike182" type="bike_bicycle" depart="1456.00" departLane="best" departSpeed="max">
        <route edges="C0C1 C1B1 B1B2 B2B3 B3C3 C3C2"/>
    </vehicle>
    <vehicle id="bike183" type="bike_bicycle" depart="1464.00" departLane="best">
        <route edges="B2C2 C2C1 C1D1 D1D2"/>
    </vehicle>
    <vehicle id="bike184" type="bike_bicycle" depart="1472.00" departLane="best" departSpeed="max">
        <route edges="A1B1 B1B2 B2C2 C2C3 C3D3 D3D4"/>
    </vehicle>
    <vehicle id="bike185" type="bike_bicycle" depart="1480.00" departLane="best">
        <route edges="C2D2 D2D3 D3C3 C3C2 C2C1 C1D1 D1D2"/>
    </vehicle>
    <vehicle id="bike186" type="bike_bicycle" depart="1488.00" departLane="best">
        <route edges="D2C2 C2C1 C1D1 D1D0"/>
    </vehicle>
    <vehicle id="bike187" type="bike_bicycle" depart="1496.00" departLane="best" departSpeed="max">
        <route edges="C0C1 C1B1 B1B0"/>
    </vehicle>
    <vehicle id="bike188" type="bike_bicycle" depart="1504.00" departLane="best" departSpeed="max">
        <route edges="D0D1 D1C1 C1C2 C2B2 B2B3 B3B4"/>
    </vehicle>
    <vehicle id="bike189" type="bike_bicycle" depart="1512.00" departLane="best" departSpeed="max">
        <route edges="B4B3 B3C3 C3D3 D3D2 D2E2"/>
    </vehicle>
    <vehicle id="bike190" type="bike_bicycle" depart="1520.00" departLane="best">
        <route edges="D1D2 D2C2 C2C3 C3B3 B3B4"/>
    </vehicle>
    <vehicle id="bike191" type="bike_bicycle" depart="1528.00" departLane="best">
        <route edges="B3C3 C3C2 C2C1 C1C0"/>
    </vehicle>