<?xml version="1.0" encoding="UTF-8"?>
<!-- generated on 2020-06-16 20:00:24.626039 by randomTrips.py v1_6_0+0003-190709904e
  options: -n optimal.net.xml <doubleminus>seed 42 <doubleminus>fringe-factor 1 -p 4 -o optimal.pedestrian.trips.xml -e 1800 -r optimal.pedestrian.rou.xml <doubleminus>vehicle-class pedestrian <doubleminus>pedestrians <doubleminus>prefix ped <doubleminus>max-distance 2000
-->
<routes xmlns:xsi="http://www.w3.org/2001/XMLSchema-instance" xsi:noNamespaceSchemaLocation="http://sumo.dlr.de/xsd/routes_file.xsd">
    <vType id="ped_pedestrian" vClass="pedestrian"/>
    <person id="ped0" depart="0.00" type="ped_pedestrian">
        <walk from="C4C3" to="A2B2"/>
    </person>
    <person id="ped1" depart="4.00" type="ped_pedestrian">
        <walk from="B3B2" to="B2B3"/>
    </person>
    <person id="ped2" depart="8.00" type="ped_pedestrian">
        <walk from="D1E1" to="D1C1"/>
    </person>
    <person id="ped3" depart="12.00" type="ped_pedestrian">
        <walk from="D3D4" to="B1A1"/>
    </person>
    <person id="ped4" depart="16.00" type="ped_pedestrian">
        <walk from="C1C2" to="A2B2"/>
    </person>
    <person id="ped5" depart="20.00" type="ped_pedestrian">
        <walk from="B2B3" to="C2C3"/>
    </person>
    <person id="ped6" depart="24.00" type="ped_pedestrian">
        <walk from="A2B2" to="B2B1"/>
    </person>
    <person id="ped7" depart="28.00" type="ped_pedestrian">
        <walk from="D0D1" to="C3B3"/>
    </person>
    <person id="ped8" depart="32.00" type="ped_pedestrian">
        <walk from="B2B3" to="C3C4"/>
    </person>
    <person id="ped9" depart="36.00" type="ped_pedestrian">
        <walk from="D2D3" to="A1B1"/>
    </person>
    <person id="ped10" depart="40.00" type="ped_pedestrian">
        <walk from="D2D3" to="D1D0"/>
    </person>
    <person id="ped11" depart="44.00" type="ped_pedestrian">
        <walk from="B4B3" to="B1C1"/>
    </person>
    <person id="ped12" depart="48.00" type="ped_pedestrian">
        <walk from="E1D1" to="B4B3"/>
    </person>
    <person id="ped13" depart="52.00" type="ped_pedestrian">
        <walk from="B1A1" to="B1A1"/>
    </person>
    <person id="ped14" depart="56.00" type="ped_pedestrian">
        <walk from="D3C3" to="C3C4"/>
    </person>
    <person id="ped15" depart="60.00" type="ped_pedestrian">
        <walk from="D2D3" to="D1E1"/>
    </person>
    <person id="ped16" depart="64.00" type="ped_pedestrian">
        <walk from="C2D2" to="E2D2"/>
    </person>
    <person id="ped17" depart="68.00" type="ped_pedestrian">
        <walk from="C1B1" to="C3B3"/>
    </person>
    <person id="ped18" depart="72.00" type="ped_pedestrian">
        <walk from="D2E2" to="C3D3"/>
    </person>
    <person id="ped19" depart="76.00" type="ped_pedestrian">
        <walk from="D3D2" to="C3C2"/>
    </person>
    <person id="ped20" depart="80.00" type="ped_pedestrian">
        <walk from="D1D0" to="A3B3"/>
    </person>
    <person id="ped21" depart="84.00" type="ped_pedestrian">
        <walk from="B2B3" to="B3B2"/>
    </person>
    <person id="ped22" depart="88.00" type="ped_pedestrian">
        <walk from="B0B1" to="B2C2"/>
    </person>
    <person id="ped23" depart="92.00" type="ped_pedestrian">
        <walk from="B1A1" to="B3B2"/>
    </person>
    <person id="ped24" depart="96.00" type="ped_pedestrian">
        <walk from="C4C3" to="C0C1"/>
    </person>
    <person id="ped25" depart="100.00" type="ped_pedestrian">
        <walk from="C0C1" to="B2B3"/>
    </person>
    <person id="ped26" depart="104.00" type="ped_pedestrian">
        <walk from="B3A3" to="D4D3"/>
    </person>
    <person id="ped27" depart="108.00" type="ped_pedestrian">
        <walk from="D0D1" to="C3D3"/>
    </person>
    <person id="ped28" depart="112.00" type="ped_pedestrian">
        <walk from="B2A2" to="D1D2"/>
    </person>
    <person id="ped29" depart="116.00" type="ped_pedestrian">
        <walk from="B1C1" to="C1B1"/>
    </person>
    <person id="ped30" depart="120.00" type="ped_pedestrian">
        <walk from="E3D3" to="C4C3"/>
    </person>
    <person id="ped31" depart="124.00" type="ped_pedestrian">
        <walk from="C3B3" to="D1C1"/>
    </person>
    <person id="ped32" depart="128.00" type="ped_pedestrian">
        <walk from="D3C3" to="D2D1"/>
    </person>
    <person id="ped33" depart="132.00" type="ped_pedestrian">
        <walk from="B2B3" to="A2B2"/>
    </person>
    <person id="ped34" depart="136.00" type="ped_pedestrian">
        <walk from="B3C3" to="B3A3"/>
    </person>
    <person id="ped35" depart="140.00" type="ped_pedestrian">
        <walk from="B2B3" to="E1D1"/>
    </person>
    <person id="ped36" depart="144.00" type="ped_pedestrian">
        <walk from="D3D4" to="B3C3"/>
    </person>
    <person id="ped37" depart="148.00" type="ped_pedestrian">
        <walk from="D0D1" to="C1B1"/>
    </person>
    <person id="ped38" depart="152.00" type="ped_pedestrian">
        <walk from="D3E3" to="C2B2"/>
    </person>
    <person id="ped39" depart="156.00" type="ped_pedestrian">
        <walk from="B3A3" to="B2C2"/>
    </person>
    <person id="ped40" depart="160.00" type="ped_pedestrian">
        <walk from="C3B3" to="B3A3"/>
    </person>
    <person id="ped41" depart="164.00" type="ped_pedestrian">
        <walk from="C3C4" to="D3E3"/>
    </person>
    <person id="ped42" depart="168.00" type="ped_pedestrian">
        <walk from="C1C0" to="B2B3"/>
    </person>
    <person id="ped43" depart="172.00" type="ped_pedestrian">
        <walk from="E3D3" to="C2C3"/>
    </person>
    <person id="ped44" depart="176.00" type="ped_pedestrian">
        <walk from="B1A1" to="A3B3"/>
    </person>
    <person id="ped45" depart="180.00" type="ped_pedestrian">
        <walk from="B1B0" to="C4C3"/>
    </person>
    <person id="ped46" depart="184.00" type="ped_pedestrian">
        <walk from="D2D3" to="C1C2"/>
    </person>
    <person id="ped47" depart="188.00" type="ped_pedestrian">
        <walk from="B0B1" to="C1B1"/>
    </person>
    <person id="ped48" depart="192.00" type="ped_pedestrian">
        <walk from="E3D3" to="C2D2"/>
    </person>
    <person id="ped49" depart="196.00" type="ped_pedestrian">
        <walk from="E2D2" to="D3D2"/>
    </person>
    <person id="ped50" depart="200.00" type="ped_pedestrian">
        <walk from="A1B1" to="D1D2"/>
    </person>
    <person id="ped51" depart="204.00" type="ped_pedestrian">
        <walk from="D1C1" to="C2D2"/>
    </person>
    <person id="ped52" depart="208.00" type="ped_pedestrian">
        <walk from="B3A3" to="C4C3"/>
    </person>
    <person id="ped53" depart="212.00" type="ped_pedestrian">
        <walk from="B1B0" to="C1C2"/>
    </person>
    <person id="ped54" depart="216.00" type="ped_pedestrian">
        <walk from="C1D1" to="E1D1"/>
    </person>
    <person id="ped55" depart="220.00" type="ped_pedestrian">
        <walk from="D3D4" to="B3A3"/>
    </person>
    <person id="ped56" depart="224.00" type="ped_pedestrian">
        <walk from="C2C3" to="B2A2"/>
    </person>
    <person id="ped57" depart="228.00" type="ped_pedestrian">
        <walk from="D3E3" to="D3D2"/>
    </person>
    <person id="ped58" depart="232.00" type="ped_pedestrian">
        <walk from="B3B4" to="C4C3"/>
    </person>
    <person id="ped59" depart="236.00" type="ped_pedestrian">
        <walk from="C3D3" to="B1C1"/>
    </person>
    <person id="ped60" depart="240.00" type="ped_pedestrian">
        <walk from="D2C2" to="C2D2"/>
    </person>
    <person id="ped61" depart="244.00" type="ped_pedestrian">
        <walk from="D2D1" to="C2D2"/>
    </person>
    <person id="ped62" depart="248.00" type="ped_pedestrian">
        <walk from="A1B1" to="B3C3"/>
    </person>
    <person id="ped63" depart="252.00" type="ped_pedestrian">
        <walk from="A1B1" to="D4D3"/>
    </person>
    <person id="ped64" depart="256.00" type="ped_pedestrian">
        <walk from="D3D4" to="D2E2"/>
    </person>
    <person id="ped65" depart="260.00" type="ped_pedestrian">
        <walk from="B3B4" to="A3B3"/>
    </person>
    <person id="ped66" depart="264.00" type="ped_pedestrian">
        <walk from="D3D4" to="E1D1"/>
    </person>
    <person id="ped67" depart="268.00" type="ped_pedestrian">
        <walk from="B1A1" to="C2C1"/>
    </person>
    <person id="ped68" depart="272.00" type="ped_pedestrian">
        <walk from="B0B1" to="D2C2"/>
    </person>
    <person id="ped69" depart="276.00" type="ped_pedestrian">
        <walk from="D2C2" to="B1B2"/>
    </person>
    <person id="ped70" depart="280.00" type="ped_pedestrian">
        <walk from="C2B2" to="C3B3"/>
    </person>
    <person id="ped71" depart="284.00" type="ped_pedestrian">
        <walk from="B3A3" to="D3D2"/>
    </person>
    <person id="ped72" depart="288.00" type="ped_pedestrian">
        <walk from="C1C2" to="B2B3"/>
    </person>
    <person id="ped73" depart="292.00" type="ped_pedestrian">
        <walk from="C2D2" to="D1E1"/>
    </person>
    <person id="ped74" depart="296.00" type="ped_pedestrian">
        <walk from="B2B1" to="B3B4"/>
    </person>
    <person id="ped75" depart="300.00" type="ped_pedestrian">
        <walk from="E3D3" to="D0D1"/>
    </person>
    <person id="ped76" depart="304.00" type="ped_pedestrian">
        <walk from="C1D1" to="C2C3"/>
    </person>
    <person id="ped77" depart="308.00" type="ped_pedestrian">
        <walk from="B1B0" to="B2B3"/>
    </person>
    <person id="ped78" depart="312.00" type="ped_pedestrian">
        <walk from="B4B3" to="C3C4"/>
    </person>
    <person id="ped79" depart="316.00" type="ped_pedestrian">
        <walk from="B2C2" to="B2B3"/>
    </person>
    <person id="ped80" depart="320.00" type="ped_pedestrian">
        <walk from="B0B1" to="C4C3"/>
    </person>
    <person id="ped81" depart="324.00" type="ped_pedestrian">
        <walk from="B2B3" to="D3E3"/>
    </person>
    <person id="ped82" depart="328.00" type="ped_pedestrian">
        <walk from="D3D2" to="B0B1"/>
    </person>
    <person id="ped83" depart="332.00" type="ped_pedestrian">
        <walk from="B2C2" to="D1C1"/>
    </person>
    <person id="ped84" depart="336.00" type="ped_pedestrian">
        <walk from="B2B3" to="B1B2"/>
    </person>
    <person id="ped85" depart="340.00" type="ped_pedestrian">
        <walk from="D4D3" to="C3C2"/>
    </person>
    <person id="ped86" depart="344.00" type="ped_pedestrian">
        <walk from="C2B2" to="D2D1"/>
    </person>
    <person id="ped87" depart="348.00" type="ped_pedestrian">
        <walk from="D2D3" to="B2B1"/>
    </person>
    <person id="ped88" depart="352.00" type="ped_pedestrian">
        <walk from="B1A1" to="C1C2"/>
    </person>
    <person id="ped89" depart="356.00" type="ped_pedestrian">
        <walk from="C1C2" to="C2B2"/>
    </person>
    <person id="ped90" depart="360.00" type="ped_pedestrian">
        <walk from="D1D2" to="D1C1"/>
    </person>
    <person id="ped91" depart="364.00" type="ped_pedestrian">
        <walk from="E3D3" to="B1A1"/>
    </person>
    <person id="ped92" depart="368.00" type="ped_pedestrian">
        <walk from="C1C0" to="B4B3"/>
    </person>
    <person id="ped93" depart="372.00" type="ped_pedestrian">
        <walk from="D3D2" to="B2C2"/>
    </person>
    <person id="ped94" depart="376.00" type="ped_pedestrian">
        <walk from="B2B1" to="C1D1"/>
    </person>
    <person id="ped95" depart="380.00" type="ped_pedestrian">
        <walk from="C1C2" to="B3B2"/>
    </person>
    <person id="ped96" depart="384.00" type="ped_pedestrian">
        <walk from="B2C2" to="D4D3"/>
    </person>
    <person id="ped97" depart="388.00" type="ped_pedestrian">
        <walk from="C1D1" to="D3D2"/>
    </person>
    <person id="ped98" depart="392.00" type="ped_pedestrian">
        <walk from="C3B3" to="A3B3"/>
    </person>
    <person id="ped99" depart="396.00" type="ped_pedestrian">
        <walk from="E3D3" to="D3C3"/>
    </person>
    <person id="ped100" depart="400.00" type="ped_pedestrian">
        <walk from="E2D2" to="D4D3"/>
    </person>
    <person id="ped101" depart="404.00" type="ped_pedestrian">
        <walk from="D3C3" to="B1C1"/>
    </person>
    <person id="ped102" depart="408.00" type="ped_pedestrian">
        <walk from="C2C1" to="B2B3"/>
    </person>
    <person id="ped103" depart="412.00" type="ped_pedestrian">
        <walk from="C1C0" to="A3B3"/>
    </person>
    <person id="ped104" depart="416.00" type="ped_pedestrian">
        <walk from="C1B1" to="E3D3"/>
    </person>
    <person id="ped105" depart="420.00" type="ped_pedestrian">
        <walk from="B3A3" to="D2D1"/>
    </person>
    <person id="ped106" depart="424.00" type="ped_pedestrian">
        <walk from="C1D1" to="C1C2"/>
    </person>
    <person id="ped107" depart="428.00" type="ped_pedestrian">
        <walk from="E1D1" to="E3D3"/>
    </person>
    <person id="ped108" depart="432.00" type="ped_pedestrian">
        <walk from="C3B3" to="D1D2"/>
    </person>
    <person id="ped109" depart="436.00" type="ped_pedestrian">
        <walk from="B1C1" to="B3B4"/>
    </person>
    <person id="ped110" depart="440.00" type="ped_pedestrian">
        <walk from="E2D2" to="C3C2"/>
    </person>
    <person id="ped111" depart="444.00" type="ped_pedestrian">
        <walk from="C3B3" to="D1E1"/>
    </person>
    <person id="ped112" depart="448.00" type="ped_pedestrian">
        <walk from="A3B3" to="C3C4"/>
    </person>
    <person id="ped113" depart="452.00" type="ped_pedestrian">
        <walk from="C2C3" to="D3C3"/>
    </person>
    <person id="ped114" depart="456.00" type="ped_pedestrian">
        <walk from="B1C1" to="E2D2"/>
    </person>
    <person id="ped115" depart="460.00" type="ped_pedestrian">
        <walk from="B0B1" to="B2A2"/>
    </person>
    <person id="ped116" depart="464.00" type="ped_pedestrian">
        <walk from="C3C4" to="D1C1"/>
    </person>
    <person id="ped117" depart="468.00" type="ped_pedestrian">
        <walk from="B2C2" to="B1B0"/>
    </person>
    <person id="ped118" depart="472.00" type="ped_pedestrian">
        <walk from="D3D4" to="B2C2"/>
    </person>
    <person id="ped119" depart="476.00" type="ped_pedestrian">
        <walk from="C3C4" to="C3D3"/>
    </person>
    <person id="ped120" depart="480.00" type="ped_pedestrian">
        <walk from="C1C2" to="C3C4"/>
    </person>
    <person id="ped121" depart="484.00" type="ped_pedestrian">
        <walk from="C2D2" to="D4D3"/>
    </person>
    <person id="ped122" depart="488.00" type="ped_pedestrian">
        <walk from="B2B1" to="D1D2"/>
    </person>
    <person id="ped123" depart="492.00" type="ped_pedestrian">
        <walk from="B2C2" to="C1B1"/>
    </person>
    <person id="ped124" depart="496.00" type="ped_pedestrian">
        <walk from="D1C1" to="B3B4"/>
    </person>
    <person id="ped125" depart="500.00" type="ped_pedestrian">
        <walk from="B3C3" to="D2C2"/>
    </person>
    <person id="ped126" depart="504.00" type="ped_pedestrian">
        <walk from="B0B1" to="C1D1"/>
    </person>
    <person id="ped127" depart="508.00" type="ped_pedestrian">
        <walk from="E3D3" to="E3D3"/>
    </person>
    <person id="ped128" depart="512.00" type="ped_pedestrian">
        <walk from="B0B1" to="B2B3"/>
    </person>
    <person id="ped129" depart="516.00" type="ped_pedestrian">
        <walk from="B3A3" to="D4D3"/>
    </person>
    <person id="ped130" depart="520.00" type="ped_pedestrian">
        <walk from="D3D4" to="D3D4"/>
    </person>
    <person id="ped131" depart="524.00" type="ped_pedestrian">
        <walk from="C0C1" to="B1C1"/>
    </person>
    <person id="ped132" depart="528.00" type="ped_pedestrian">
        <walk from="D3C3" to="D1D0"/>
    </person>
    <person id="ped133" depart="532.00" type="ped_pedestrian">
        <walk from="C3D3" to="E3D3"/>
    </person>
    <person id="ped134" depart="536.00" type="ped_pedestrian">
        <walk from="D0D1" to="A1B1"/>
    </person>
    <person id="ped135" depart="540.00" type="ped_pedestrian">
        <walk from="D2E2" to="B3B4"/>
    </person>
    <person id="ped136" depart="544.00" type="ped_pedestrian">
        <walk from="D0D1" to="E1D1"/>
    </person>
    <person id="ped137" depart="548.00" type="ped_pedestrian">
        <walk from="B1B2" to="B1B0"/>
    </person>
    <person id="ped138" depart="552.00" type="ped_pedestrian">
        <walk from="B1B0" to="C3B3"/>
    </person>
    <person id="ped139" depart="556.00" type="ped_pedestrian">
        <walk from="B3B2" to="C3D3"/>
    </person>
    <person id="ped140" depart="560.00" type="ped_pedestrian">
        <walk from="D1D2" to="B2B1"/>
    </person>
    <person id="ped141" depart="564.00" type="ped_pedestrian">
        <walk from="C4C3" to="B3A3"/>
    </person>
    <person id="ped142" depart="568.00" type="ped_pedestrian">
        <walk from="C2C1" to="D3E3"/>
    </person>
    <person id="ped143" depart="572.00" type="ped_pedestrian">
        <walk from="D3C3" to="B1A1"/>
    </person>
    <person id="ped144" depart="576.00" type="ped_pedestrian">
        <walk from="C1C2" to="B3B2"/>
    </person>
    <person id="ped145" depart="580.00" type="ped_pedestrian">
        <walk from="A1B1" to="D2D1"/>
    </person>
    <person id="ped146" depart="584.00" type="ped_pedestrian">
        <walk from="C4C3" to="B3A3"/>
    </person>
    <person id="ped147" depart="588.00" type="ped_pedestrian">
        <walk from="D1E1" to="C3B3"/>
    </person>
    <person id="ped148" depart="592.00" type="ped_pedestrian">
        <walk from="C1C2" to="A1B1"/>
    </person>
    <person id="ped149" depart="596.00" type="ped_pedestrian">
        <walk from="B0B1" to="D3D4"/>
    </person>
    <person id="ped150" depart="600.00" type="ped_pedestrian">
        <walk from="D3E3" to="C3B3"/>
    </person>
    <person id="ped151" depart="604.00" type="ped_pedestrian">
        <walk from="D3C3" to="C3C2"/>
    </person>
    <person id="ped152" depart="608.00" type="ped_pedestrian">
        <walk from="B1C1" to="B1B2"/>
    </person>
    <person id="ped153" depart="612.00" type="ped_pedestrian">
        <walk from="B3B4" to="D3E3"/>
    </person>
    <person id="ped154" depart="616.00" type="ped_pedestrian">
        <walk from="D2D3" to="D3D2"/>
    </person>
    <person id="ped155" depart="620.00" type="ped_pedestrian">
        <walk from="D3E3" to="B2B3"/>
    </person>
    <person id="ped156" depart="624.00" type="ped_pedestrian">
        <walk from="B2C2" to="B1A1"/>
    </person>
    <person id="ped157" depart="628.00" type="ped_pedestrian">
        <walk from="D2D1" to="D3D4"/>
    </person>
    <person id="ped158" depart="632.00" type="ped_pedestrian">
        <walk from="C1C0" to="C3D3"/>
    </person>
    <person id="ped159" depart="636.00" type="ped_pedestrian">
        <walk from="B1C1" to="D4D3"/>
    </person>
    <person id="ped160" depart="640.00" type="ped_pedestrian">
        <walk from="D3D2" to="E2D2"/>
    </person>
    <person id="ped161" depart="644.00" type="ped_pedestrian">
        <walk from="D2D3" to="D3D4"/>
    </person>
    <person id="ped162" depart="648.00" type="ped_pedestrian">
        <walk from="A2B2" to="D1E1"/>
    </person>
    <person id="ped163" depart="652.00" type="ped_pedestrian">
        <walk from="B3C3" to="D4D3"/>
    </person>
    <person id="ped164" depart="656.00" type="ped_pedestrian">
        <walk from="D2D3" to="D3D2"/>
    </person>
    <person id="ped165" depart="660.00" type="ped_pedestrian">
        <walk from="D2D3" to="B3A3"/>
    </person>
    <person id="ped166" depart="664.00" type="ped_pedestrian">
        <walk from="D2D1" to="B1B0"/>
    </person>
    <person id="ped167" depart="668.00" type="ped_pedestrian">
        <walk from="D3D2" to="D3D2"/>
    </person>
    <person id="ped168" depart="672.00" type="ped_pedestrian">
        <walk from="B2B3" to="D2E2"/>
    </person>
    <person id="ped169" depart="676.00" type="ped_pedestrian">
        <walk from="C2B2" to="B3B4"/>
    </person>
    <person id="ped170" depart="680.00" type="ped_pedestrian">
        <walk from="D2D3" to="B2B3"/>
    </person>
    <person id="ped171" depart="684.00" type="ped_pedestrian">
        <walk from="A2B2" to="B2B1"/>
    </person>
    <person id="ped172" depart="688.00" type="ped_pedestrian">
        <walk from="B3C3" to="D3D2"/>
    </person>
    <person id="ped173" depart="692.00" type="ped_pedestrian">
        <walk from="E2D2" to="B3B2"/>
    </person>
    <person id="ped174" depart="696.00" type="ped_pedestrian">
        <walk from="C4C3" to="C1C0"/>
    </person>
    <person id="ped175" depart="700.00" type="ped_pedestrian">
        <walk from="E3D3" to="C2D2"/>
    </person>
    <person id="ped176" depart="704.00" type="ped_pedestrian">
        <walk from="E1D1" to="B1B0"/>
    </person>
    <person id="ped177" depart="708.00" type="ped_pedestrian">
        <walk from="E2D2" to="B2A2"/>
    </person>
    <person id="ped178" depart="712.00" type="ped_pedestrian">
        <walk from="E2D2" to="B3A3"/>
    </person>
    <person id="ped179" depart="716.00" type="ped_pedestrian">
        <walk from="B1B0" to="C1C2"/>
    </person>
    <person id="ped180" depart="720.00" type="ped_pedestrian">
        <walk from="D1D2" to="B3C3"/>
    </person>
    <person id="ped181" depart="724.00" type="ped_pedestrian">
        <walk from="C3D3" to="C2C3"/>
    </person>
    <person id="ped182" depart="728.00" type="ped_pedestrian">
        <walk from="C1B1" to="C3C2"/>
    </person>
    <person id="ped183" depart="732.00" type="ped_pedestrian">
        <walk from="B3A3" to="D1D2"/>
    </person>
    <person id="ped184" depart="736.00" type="ped_pedestrian">
        <walk from="A1B1" to="D4D3"/>
    </person>
    <person id="ped185" depart="740.00" type="ped_pedestrian">
        <walk from="C2D2" to="D1D2"/>
    </person>
    <person id="ped186" depart="744.00" type="ped_pedestrian">
        <walk from="D1E1" to="D1C1"/>
    </person>
    <person id="ped187" depart="748.00" type="ped_pedestrian">
        <walk from="C0C1" to="B0B1"/>
    </person>
    <person id="ped188" depart="752.00" type="ped_pedestrian">
        <walk from="D0D1" to="B3C3"/>
    </person>
    <person id="ped189" depart="756.00" type="ped_pedestrian">
        <walk from="B3C3" to="D3C3"/>
    </person>
    <person id="ped190" depart="760.00" type="ped_pedestrian">
        <walk from="D1D2" to="B3B4"/>
    </person>
    <person id="ped191" depart="764.00" type="ped_pedestrian">
        <walk from="B3B4" to="C1C0"/>
    </person>
    <person id="ped192" depart="768.00" type="ped_pedestrian">
        <walk from="C1C0" to="B3B4"/>
    </person>
    <person id="ped193" depart="772.00" type="ped_pedestrian">
        <walk from="B1B2" to="C1C2"/>
    </person>
    <person id="ped194" depart="776.00" type="ped_pedestrian">
        <walk from="E1D1" to="D1C1"/>
    </person>
    <person id="ped195" depart="780.00" type="ped_pedestrian">
        <walk from="D3E3" to="C3D3"/>
    </person>
    <person id="ped196" depart="784.00" type="ped_pedestrian">
        <walk from="B3B4" to="C3B3"/>
    </person>
    <person id="ped197" depart="788.00" type="ped_pedestrian">
        <walk from="A1B1" to="B3B2"/>
    </person>
    <person id="ped198" depart="792.00" type="ped_pedestrian">
        <walk from="C1C2" to="C3C2"/>
    </person>
    <person id="ped199" depart="796.00" type="ped_pedestrian">
        <walk from="D0D1" to="C2B2"/>
    </person>
    <person id="ped200" depart="800.00" type="ped_pedestrian">
        <walk from="C1D1" to="B2B3"/>
    </person>
    <person id="ped201" depart="804.00" type="ped_pedestrian">
        <walk from="C2B2" to="D3E3"/>
    </person>
    <person id="ped202" depart="808.00" type="ped_pedestrian">
        <walk from="D2D3" to="B2A2"/>
    </person>
    <person id="ped203" depart="812.00" type="ped_pedestrian">
        <walk from="B1A1" to="C2C3"/>
    </person>
    <person id="ped204" depart="816.00" type="ped_pedestrian">
        <walk from="C4C3" to="B4B3"/>
    </person>
    <person id="ped205" depart="820.00" type="ped_pedestrian">
        <walk from="D2E2" to="D2C2"/>
    </person>
    <person id="ped206" depart="824.00" type="ped_pedestrian">
        <walk from="D1C1" to="B2B3"/>
    </person>
    <person id="ped207" depart="828.00" type="ped_pedestrian">
        <walk from="B2B1" to="A2B2"/>
    </person>
    <person id="ped208" depart="832.00" type="ped_pedestrian">
        <walk from="B2C2" to="C2B2"/>
    </person>
    <person id="ped209" depart="836.00" type="ped_pedestrian">
        <walk from="D3C3" to="B0B1"/>
    </person>
    <person id="ped210" depart="840.00" type="ped_pedestrian">
        <walk from="C1C0" to="C4C3"/>
    </person>
    <person id="ped211" depart="844.00" type="ped_pedestrian">
        <walk from="B2B1" to="D1D0"/>
    </person>
    <person id="ped212" depart="848.00" type="ped_pedestrian">
        <walk from="C2C1" to="B2C2"/>
    </person>
    <person id="ped213" depart="852.00" type="ped_pedestrian">
        <walk from="D0D1" to="A1B1"/>
    </person>
    <person id="ped214" depart="856.00" type="ped_pedestrian">
        <walk from="D2C2" to="D2C2"/>
    </person>
    <person id="ped215" depart="860.00" type="ped_pedestrian">
        <walk from="B1B0" to="C1C2"/>
    </person>
    <person id="ped216" depart="864.00" type="ped_pedestrian">
        <walk from="B2A2" to="E1D1"/>
    </person>
    <person id="ped217" depart="868.00" type="ped_pedestrian">
        <walk from="C2C3" to="A3B3"/>
    </person>
    <person id="ped218" depart="872.00" type="ped_pedestrian">
        <walk from="B2C2" to="D3C3"/>
    </person>
    <person id="ped219" depart="876.00" type="ped_pedestrian">
        <walk from="C1D1" to="D2D3"/>
    </person>
    <person id="ped220" depart="880.00" type="ped_pedestrian">
        <walk from="D1C1" to="E3D3"/>
    </person>
    <person id="ped221" depart="884.00" type="ped_pedestrian">
        <walk from="C3C4" to="E1D1"/>
    </person>
    <person id="ped222" depart="888.00" type="ped_pedestrian">
        <walk from="D3D4" to="C3D3"/>
    </person>
    <person id="ped223" depart="892.00" type="ped_pedestrian">
        <walk from="D1D2" to="C2C3"/>
    </person>
    <person id="ped224" depart="896.00" type="ped_pedestrian">
        <walk from="D2E2" to="C3B3"/>
    </person>
    <person id="ped225" depart="900.00" type="ped_pedestrian">
        <walk from="D3E3" to="D1E1"/>
    </person>
    <person id="ped226" depart="904.00" type="ped_pedestrian">
        <walk from="C2B2" to="B3A3"/>
    </person>
    <person id="ped227" depart="908.00" type="ped_pedestrian">
        <walk from="B2C2" to="C4C3"/>
    </person>
    <person id="ped228" depart="912.00" type="ped_pedestrian">
        <walk from="D2C2" to="C2D2"/>
    </person>
    <person id="ped229" depart="916.00" type="ped_pedestrian">
        <walk from="C4C3" to="B3B2"/>
    </person>
    <person id="ped230" depart="920.00" type="ped_pedestrian">
        <walk from="B0B1" to="B3B2"/>
    </person>
    <person id="ped231" depart="924.00" type="ped_pedestrian">
        <walk from="B3B2" to="B3C3"/>
    </person>
    <person id="ped232" depart="928.00" type="ped_pedestrian">
        <walk from="C2D2" to="B1B2"/>
    </person>
    <person id="ped233" depart="932.00" type="ped_pedestrian">
        <walk from="B2C2" to="D1D0"/>
    </person>
    <person id="ped234" depart="936.00" type="ped_pedestrian">
        <walk from="D1D0" to="B0B1"/>
    </person>
    <person id="ped235" depart="940.00" type="ped_pedestrian">
        <walk from="C1C0" to="C3B3"/>
    </person>
    <person id="ped236" depart="944.00" type="ped_pedestrian">
        <walk from="C1C0" to="B2B1"/>
    </person>
    <person id="ped237" depart="948.00" type="ped_pedestrian">
        <walk from="C1C2" to="D3E3"/>
    </person>
    <person id="ped238" depart="952.00" type="ped_pedestrian">
        <walk from="C3C4" to="D1D0"/>
    </person>
    <person id="ped239" depart="956.00" type="ped_pedestrian">
        <walk from="D3D2" to="D2C2"/>
    </person>
    <person id="ped240" depart="960.00" type="ped_pedestrian">
        <walk from="C1B1" to="A1B1"/>
    </person>
    <person id="ped241" depart="964.00" type="ped_pedestrian">
        <walk from="B4B3" to="D2C2"/>
    </person>
    <person id="ped242" depart="968.00" type="ped_pedestrian">
        <walk from="D3C3" to="E1D1"/>
    </person>
    <person id="ped243" depart="972.00" type="ped_pedestrian">
        <walk from="C1C2" to="D1E1"/>
    </person>
    <person id="ped244" depart="976.00" type="ped_pedestrian">
        <walk from="C3B3" to="C3C4"/>
    </person>
    <person id="ped245" depart="980.00" type="ped_pedestrian">
        <walk from="B2B3" to="B2B3"/>
    </person>
    <person id="ped246" depart="984.00" type="ped_pedestrian">
        <walk from="C1C2" to="A2B2"/>
    </person>
    <person id="ped247" depart="988.00" type="ped_pedestrian">
        <walk from="B4B3" to="D1C1"/>
    </person>
    <person id="ped248" depart="992.00" type="ped_pedestrian">
        <walk from="C1C0" to="B1C1"/>
    </person>
    <person id="ped249" depart="996.00" type="ped_pedestrian">
        <walk from="C2B2" to="B1B2"/>
    </person>
    <person id="ped250" depart="1000.00" type="ped_pedestrian">
        <walk from="C3D3" to="A2B2"/>
    </person>
    <person id="ped251" depart="1004.00" type="ped_pedestrian">
        <walk from="C1B1" to="C3C2"/>
    </person>
    <person id="ped252" depart="1008.00" type="ped_pedestrian">
        <walk from="A2B2" to="C4C3"/>
    </person>
    <person id="ped253" depart="1012.00" type="ped_pedestrian">
        <walk from="B1B2" to="C2B2"/>
    </person>
    <person id="ped254" depart="1016.00" type="ped_pedestrian">
        <walk from="A3B3" to="C1B1"/>
    </person>
    <person id="ped255" depart="1020.00" type="ped_pedestrian">
        <walk from="B2B3" to="B3C3"/>
    </person>
    <person id="ped256" depart="1024.00" type="ped_pedestrian">
        <walk from="D2C2" to="C1B1"/>