<?xml version="1.0" encoding="UTF-8"?>

<!-- generated on 06/08/20 17:47:56 by Eclipse SUMO duarouter Version 1.6.0
<configuration xmlns:xsi="http://www.w3.org/2001/XMLSchema-instance" xsi:noNamespaceSchemaLocation="http://sumo.dlr.de/xsd/duarouterConfiguration.xsd">

    <input>
        <net-file value="optimal.net.xml"/>
        <route-files value="optimal.motorcycle.trips.xml"/>
    </input>

    <output>
        <output-file value="optimal.motorcycle.rou.xml"/>
        <alternatives-output value="optimal.motorcycle.rou.alt.xml"/>
    </output>

    <time>
        <begin value="0"/>
        <end value="1800.0"/>
    </time>

    <report>
        <no-warnings value="true"/>
        <ignore-errors value="true"/>
        <no-step-log value="true"/>
    </report>

</configuration>
-->

<routes xmlns:xsi="http://www.w3.org/2001/XMLSchema-instance" xsi:noNamespaceSchemaLocation="http://sumo.dlr.de/xsd/routes_file.xsd">
    <vType id="moto_motorcycle" vClass="motorcycle"/>
    <vehicle id="moto0" type="moto_motorcycle" depart="0.00" departLane="best" departSpeed="max">
        <route edges="C4C3 C3C2 C2C1 C1B1 B1A1"/>
    </vehicle>
    <vehicle id="moto1" type="moto_motorcycle" depart="15.00" departLane="best">
        <route edges="B3B2 B2C2"/>
    </vehicle>
    <vehicle id="moto2" type="moto_motorcycle" depart="30.00" departLane="best">
        <route edges="D2C2 C2C1 C1D1 D1D0"/>
    </vehicle>
    <vehicle id="moto3" type="moto_motorcycle" depart="45.00" departLane="best" departSpeed="max">
        <route edges="E1D1 D1C1 C1B1 B1B2"/>
    </vehicle>
    <vehicle id="moto4" type="moto_motorcycle" depart="60.00" departLane="best">
        <route edges="C1C2 C2B2 B2B1 B1A1"/>
    </vehicle>
    <vehicle id="moto5" type="moto_motorcycle" depart="75.00" departLane="best">
        <route edges="B2B1 B1C1 C1C2 C2C3"/>
    </vehicle>
    <vehicle id="moto6" type="moto_motorcycle" depart="90.00" departLane="best" departSpeed="max">
        <route edges="A1B1 B1B2 B2B3"/>
    </vehicle>
    <vehicle id="moto7" type="moto_motorcycle" depart="105.00" departLane="best" departSpeed="max">
        <route edges="D0D1 D1D2 D2D3 D3C3 C3B3"/>
    </vehicle>
    <vehicle id="moto8" type="moto_motorcycle" depart="120.00" departLane="best">
        <route edges="B2B1 B1C1 C1C2 C2C3 C3C4"/>
    </vehicle>
    <vehicle id="moto9" type="moto_motorcycle" depart="135.00" departLane="best">
        <route edges="D3C3 C3C2 C2C1 C1B1 B1A1"/>
    </vehicle>
    <vehicle id="moto10" type="moto_motorcycle" depart="150.00" departLane="best">
        <route edges="D3C3 C3C2 C2D2 D2D1 D1D0"/>
    </vehicle>
    <vehicle id="moto11" type="moto_motorcycle" depart="165.00" departLane="best" departSpeed="max">
        <route edges="B4B3 B3B2 B2A2"/>
    </vehicle>
    <vehicle id="moto12" type="moto_motorcycle" depart="180.00" departLane="best" departSpeed="max">
        <route edges="E2D2 D2C2 C2B2 B2B3 B3C3"/>
    </vehicle>
    <vehicle id="moto13" type="moto_motorcycle" depart="195.00" departLane="best" departSpeed="max">
        <route edges="A3B3 B3C3 C3C2 C2C1 C1B1 B1B2"/>
    </vehicle>
    <vehicle id="moto14" type="moto_motorcycle" depart="210.00" departLane="best" departSpeed="max">
        <route edges="D4D3 D3C3 C3C4"/>
    </vehicle>
    <vehicle id="moto15" type="moto_motorcycle" depart="225.00" departLane="best">
        <route edges="D3C3 C3C2 C2C1 C1D1 D1E1"/>
    </vehicle>
    <vehicle id="moto16" type="moto_motorcycle" depart="240.00" departLane="best">
        <route edges="C2D2 D2D3 D3E3"/>
    </vehicle>
    <vehicle id="moto17" type="moto_motorcycle" depart="255.00" departLane="best" departSpeed="max">
        <route edges="C0C1 C1C2 C2C3 C3B3"/>
    </vehicle>
    <vehicle id="moto18" type="moto_motorcycle" depart="270.00" departLane="best">
        <route edges="D3D2 D2C2 C2C3 C3C4"/>
    </vehicle>
    <vehicle id="moto19" type="moto_motorcycle" depart="285.00" departLane="best" departSpeed="max">
        <route edges="D4D3 D3C3 C3C2"/>
    </vehicle>
    <vehicle id="moto20" type="moto_motorcycle" depart="300.00" departLane="best">
        <route edges="D1C1 C1B1 B1B0"/>
    </vehicle>
    <vehicle id="moto21" type="moto_motorcycle" depart="315.00" departLane="best">
        <route edges="B2B1 B1C1 C1C2 C2C3 C3B3 B3B2"/>
    </vehicle>
    <vehicle id="moto22" type="moto_motorcycle" depart="330.00" departLane="best" departSpeed="max">
        <route edges="A2B2 B2B3 B3A3"/>
    </vehicle>
    <vehicle id="moto23" type="moto_motorcycle" depart="345.00" departLane="best" departSpeed="max">
        <route edges="A3B3 B3B2"/>
    </vehicle>
    <vehicle id="moto24" type="moto_motorcycle" depart="360.00" departLane="best" departSpeed="max">
        <route edges="C4C3 C3C2 C2C1 C1B1"/>
    </vehicle>
    <vehicle id="moto25" type="moto_motorcycle" depart="375.00" departLane="best" departSpeed="max">
        <route edges="C0C1 C1B1 B1B2 B2C2"/>
    </vehicle>
    <vehicle id="moto26" type="moto_motorcycle" depart="390.00" departLane="best">
        <route edges="B2C2 C2D2 D2D3 D3D4"/>
    </vehicle>
    <vehicle id="moto27" type="moto_motorcycle" depart="405.00" departLane="best" departSpeed="max">
        <route edges="D0D1 D1C1 C1C2 C2C3 C3C4"/>
    </vehicle>
    <vehicle id="moto28" type="moto_motorcycle" depart="420.00" departLane="best">
        <route edges="B1B2 B2C2 C2C1 C1D1 D1D2"/>
    </vehicle>
    <vehicle id="moto29" type="moto_motorcycle" depart="435.00" departLane="best" departSpeed="max">
        <route edges="B0B1 B1C1 C1C0"/>
    </vehicle>
    <vehicle id="moto30" type="moto_motorcycle" depart="450.00" departLane="best" departSpeed="max">
        <route edges="E3D3 D3D2 D2C2 C2C3 C3D3"/>
    </vehicle>
    <vehicle id="moto31" type="moto_motorcycle" depart="465.00" departLane="best">
        <route edges="C3B3 B3B2 B2C2 C2D2 D2D1 D1D0"/>
    </vehicle>
    <vehicle id="moto32" type="moto_motorcycle" depart="480.00" departLane="best" departSpeed="max">
        <route edges="D4D3 D3D2 D2C2"/>
    </vehicle>
    <vehicle id="moto33" type="moto_motorcycle" depart="495.00" departLane="best">
        <route edges="B2B1 B1A1"/>
    </vehicle>
    <vehicle id="moto34" type="moto_motorcycle" depart="510.00" departLane="best" departSpeed="max">
        <route edges="B4B3 B3A3"/>
    </vehicle>
    <vehicle id="moto35" type="moto_motorcycle" depart="525.00" departLane="best">
        <route edges="B2B1 B1C1 C1D1 D1D2 D2D3 D3D4"/>
    </vehicle>
    <vehicle id="moto36" type="moto_motorcycle" depart="540.00" departLane="best" departSpeed="max">
        <route edges="E1D1 D1C1 C1B1 B1B2 B2B3 B3B4"/>
    </vehicle>
    <vehicle id="moto37" type="moto_motorcycle" depart="555.00" departLane="best" departSpeed="max">
        <route edges="D0D1 D1C1 C1C0"/>
    </vehicle>
    <vehicle id="moto38" type="moto_motorcycle" depart="570.00" departLane="best" departSpeed="max">
        <route edges="E1D1 D1C1 C1C2 C2B2"/>
    </vehicle>
    <vehicle id="moto39" type="moto_motorcycle" depart="585.00" departLane="best">
        <route edges="B2C2 C2C3 C3B3 B3A3"/>
    </vehicle>
    <vehicle id="moto40" type="moto_motorcycle" depart="600.00" departLane="best">
        <route edges="C3B3 B3A3"/>
    </vehicle>
    <vehicle id="moto41" type="moto_motorcycle" depart="615.00" departLane="best">
        <route edges="C3D3 D3D2"/>
    </vehicle>
    <vehicle id="moto42" type="moto_motorcycle" depart="630.00" departLane="best">
        <route edges="C1B1 B1B2 B2C2"/>
    </vehicle>
    <vehicle id="moto43" type="moto_motorcycle" depart="645.00" departLane="best" departSpeed="max">
        <route edges="E3D3 D3D2 D2C2 C2C3"/>
    </vehicle>
    <vehicle id="moto44" type="moto_motorcycle" depart="660.00" departLane="best" departSpeed="max">
        <route edges="A3B3 B3B2 B2B1 B1B0"/>
    </vehicle>
    <vehicle id="moto45" type="moto_motorcycle" depart="675.00" departLane="best" departSpeed="max">
        <route edges="A3B3 B3C3 C3D3"/>
    </vehicle>
    <vehicle id="moto46" type="moto_motorcycle" depart="690.00" departLane="best">
        <route edges="D3C3 C3C2 C2D2 D2D1 D1C1 C1C2"/>
    </vehicle>
    <vehicle id="moto47" type="moto_motorcycle" depart="705.00" departLane="best" departSpeed="max">
        <route edges="A2B2 B2C2 C2C1 C1C0"/>
    </vehicle>
    <vehicle id="moto48" type="moto_motorcycle" depart="720.00" departLane="best" departSpeed="max">
        <route edges="E3D3 D3C3 C3C2 C2D2"/>
    </vehicle>
    <vehicle id="moto49" type="moto_motorcycle" depart="735.00" departLane="best" departSpeed="max">
        <route edges="E3D3 D3D2 D2E2"/>
    </vehicle>
    <vehicle id="moto50" type="moto_motorcycle" depart="750.00" departLane="best" departSpeed="max">
        <route edges="A1B1 B1C1 C1D1 D1D2"/>
    </vehicle>
    <vehicle id="moto51" type="moto_motorcycle" depart="765.00" departLane="best" departSpeed="max">
        <route edges="D0D1 D1C1 C1C2 C2D2"/>
    </vehicle>
    <vehicle id="moto52" type="moto_motorcycle" depart="780.00" departLane="best">
        <route edges="B2C2 C2C3 C3D3"/>
    </vehicle>
    <vehicle id="moto53" type="moto_motorcycle" depart="795.00" departLane="best" departSpeed="max">
        <route edges="A3B3 B3B2 B2B1 B1C1 C1C2"/>
    </vehicle>
    <vehicle id="moto54" type="moto_motorcycle" depart="810.00" departLane="best">
        <route edges="C1D1 D1D2 D2D3 D3D4"/>
    </vehicle>
    <vehicle id="moto55" type="moto_motorcycle" depart="825.00" departLane="best" departSpeed="max">
        <route edges="E1D1 D1C1 C1C2 C2C3 C3B3 B3A3"/>
    </vehicle>
    <vehicle id="moto56" type="moto_motorcycle" depart="840.00" departLane="best">
        <route edges="C2C3 C3B3 B3B2 B2B1"/>
    </vehicle>
    <vehicle id="moto57" type="moto_motorcycle" depart="855.00" departLane="best" departSpeed="max">
        <route edges="E1D1 D1D2 D2E2"/>
    </vehicle>
    <vehicle id="moto58" type="moto_motorcycle" depart="870.00" departLane="best">
        <route edges="B3C3 C3D3"/>
    </vehicle>
    <vehicle id="moto59" type="moto_motorcycle" depart="885.00" departLane="best" departSpeed="max">
        <route edges="C4C3 C3C2 C2B2 B2A2"/>
    </vehicle>
    <vehicle id="moto60" type="moto_motorcycle" depart="900.00" departLane="best">
        <route edges="D2D1 D1C1 C1C2 C2D2"/>
    </vehicle>
    <vehicle id="moto61" type="moto_motorcycle" depart="915.00" departLane="best">
        <route edges="D2D3 D3C3 C3C2 C2D2"/>
    </vehicle>
    <vehicle id="moto62" type="moto_motorcycle" depart="930.00" departLane="best" departSpeed="max">
        <route edges="A1B1 B1B2 B2B3 B3B4"/>
    </vehicle>
    <vehicle id="moto63" type="moto_motorcycle" depart="945.00" departLane="best" departSpeed="max">
        <route edges="A1B1 B1C1 C1D1 D1D2 D2D3 D3D4"/>
    </vehicle>
    <vehicle id="moto64" type="moto_motorcycle" depart="960.00" departLane="best" departSpeed="max">
        <route edges="E1D1 D1D2 D2D3"/>
    </vehicle>
    <vehicle id="moto65" type="moto_motorcycle" depart="975.00" departLane="best">
        <route edges="B3C3 C3C2 C2B2 B2B1 B1B0"/>
    </vehicle>
    <vehicle id="moto66" type="moto_motorcycle" depart="990.00" departLane="best" departSpeed="max">
        <route edges="E1D1 D1D2 D2D3 D3D4"/>
    </vehicle>
    <vehicle id="moto67" type="moto_motorcycle" depart="1005.00" departLane="best" departSpeed="max">
        <route edges="A3B3 B3C3 C3C2 C2C1"/>
    </vehicle>
    <vehicle id="moto68" type="moto_motorcycle" depart="1020.00" departLane="best" departSpeed="max">
        <route edges="A2B2 B2C2 C2C1 C1D1 D1E1"/>
    </vehicle>
    <vehicle id="moto69" type="moto_motorcycle" depart="1035.00" departLane="best">
        <route edges="D2D1 D1C1 C1C2 C2B2 B2A2"/>
    </vehicle>
    <vehicle id="moto70" type="moto_motorcycle" depart="1050.00" departLane="best">
        <route edges="C2B2 B2B1 B1C1 C1C2 C2C3 C3B3"/>
    </vehicle>
    <vehicle id="moto71" type="moto_motorcycle" depart="1065.00" departLane="best">
        <route edges="B2C2 C2D2 D2E2"/>
    </vehicle>
    <vehicle id="moto72" type="moto_motorcycle" depart="1080.00" departLane="best">
        <route edges="C1C2 C2C3 C3B3 B3B2 B2C2"/>
    </vehicle>
    <vehicle id="moto73" type="moto_motorcycle" depart="1095.00" departLane="best">
        <route edges="C2D2 D2D1 D1E1"/>
    </vehicle>
    <vehicle id="moto74" type="moto_motorcycle" depart="1110.00" departLane="best">
        <route edges="B1C1 C1C2 C2B2 B2B3 B3B4"/>
    </vehicle>
    <vehicle id="moto75" type="moto_motorcycle" depart="1125.00" departLane="best" departSpeed="max">
        <route edges="E3D3 D3D2 D2D1 D1C1"/>
    </vehicle>
    <vehicle id="moto76" type="moto_motorcycle" depart="1140.00" departLane="best">
        <route edges="C1D1 D1D2 D2C2 C2C3"/>
    </vehicle>
    <vehicle id="moto77" type="moto_motorcycle" depart="1155.00" departLane="best" departSpeed="max">
        <route edges="A3B3 B3B2 B2C2"/>
    </vehicle>
    <vehicle id="moto78" type="moto_motorcycle" depart="1170.00" departLane="best" departSpeed="max">
        <route edges="B4B3 B3C3 C3C4"/>
    </vehicle>
    <vehicle id="moto79" type="moto_motorcycle" depart="1185.00" departLane="best">
        <route edges="B2B3 B3C3 C3C2 C2C1 C1B1 B1B2 B2C2"/>
    </vehicle>
    <vehicle id="moto80" type="moto_motorcycle" depart="1200.00" departLane="best" departSpeed="max">
        <route edges="A2B2 B2B3 B3C3 C3D3"/>
    </vehicle>
    <vehicle id="moto81" type="moto_motorcycle" depart="1215.00" departLane="best">
        <route edges="B2B1 B1C1 C1C2 C2C3 C3D3 D3D2"/>
    </vehicle>
    <vehicle id="moto82" type="moto_motorcycle" depart="1230.00" departLane="best" departSpeed="max">
        <route edges="D4D3 D3D2 D2C2 C2B2 B2B1 B1B0"/>
    </vehicle>
    <vehicle id="moto83" type="moto_motorcycle" depart="1245.00" departLane="best">
        <route edges="B2B3 B3C3 C3D3 D3D2 D2D1 D1D0"/>
    </vehicle>
    <vehicle id="moto84" type="moto_motorcycle" depart="1260.00" departLane="best">
        <route edges="B2B1 B1C1 C1C2 C2B2 B2A2"/>
    </vehicle>
    <vehicle id="moto85" type="moto_motorcycle" depart="1275.00" departLane="best" departSpeed="max">
        <route edges="E2D2 D2D3 D3C3 C3C2"/>
    </vehicle>
    <vehicle id="moto86" type="moto_motorcycle" depart="1290.00" departLane="best">
        <route edges="C2B2 B2B3 B3C3 C3D3 D3D2 D2C2"/>
    </vehicle>
    <vehicle id="moto87" type="moto_motorcycle" depart="1305.00" departLane="best">
        <route edges="D3C3 C3C2 C2B2 B2B3"/>
    </vehicle>
    <vehicle id="moto88" type="moto_motorcycle" depart="1320.00" departLane="best" departSpeed="max">
        <route edges="A3B3 B3B2 B2B1 B1C1 C1C2"/>
    </vehicle>
    <vehicle id="moto89" type="moto_motorcycle" depart="1335.00" departLane="best">
        <route edges="C1C2 C2B2"/>
    </vehicle>
    <vehicle id="moto90" type="moto_motorcycle" depart="1350.00" departLane="best">
        <route edges="D1D2 D2C2 C2C1 C1D1 D1D0"/>
    </vehicle>
    <vehicle id="moto91" type="moto_motorcycle" depart="1365.00" departLane="best" departSpeed="max">
        <route edges="E3D3 D3D2 D2D1 D1C1 C1B1 B1B2"/>
    </vehicle>
    <vehicle id="moto92" type="moto_motorcycle" depart="1380.00" departLane="best">
        <route edges="C1B1 B1B2 B2B3 B3C3"/>
    </vehicle>
    <vehicle id="moto93" type="moto_motorcycle" depart="1395.00" departLane="best" departSpeed="max">
        <route edges="D4D3 D3C3 C3B3 B3A3"/>
    </vehicle>
    <vehicle id="moto94" type="moto_motorcycle" depart="1410.00" departLane="best">
        <route edges="B1C1 C1D1"/>
    </vehicle>
    <vehicle id="moto95" type="moto_motorcycle" depart="1425.00" departLane="best">
        <route edges="C1C2 C2C3 C3B3 B3B2"/>
    </vehicle>
    <vehicle id="moto96" type="moto_motorcycle" depart="1440.00" departLane="best">
        <route edges="B2B3 B3C3 C3D3 D3D4"/>
    </vehicle>
    <vehicle id="moto97" type="moto_motorcycle" depart="1455.00" departLane="best">
        <route edges="C1D1 D1D2 D2E2"/>
    </vehicle>
    <vehicle id="moto98" type="moto_motorcycle" depart="1470.00" departLane="best">
        <route edges="C3B3 B3B2 B2B1 B1B0"/>
    </vehicle>
    <vehicle id="moto99" type="moto_motorcycle" depart="1485.00" departLane="best" departSpeed="max">
        <route edges="E3D3 D3D2 D2E2"/>
    </vehicle>
    <vehicle id="moto100" type="moto_motorcycle" depart="1500.00" departLane="best" departSpeed="max">
        <route edges="E3D3 D3D4"/>
    </vehicle>
    <vehicle id="moto101" type="moto_motorcycle" depart="1515.00" departLane="best" departSpeed="max">
        <route edges="D4D3 D3D2 D2C2 C2B2 B2A2"/>
    </vehicle>
    <vehicle id="moto102" type="moto_motorcycle" depart="1530.00" departLane="best">
        <route edges="C2C1 C1B1 B1B2 B2C2"/>
    </vehicle>
    <vehicle id="moto103" type="moto_motorcycle" depart="1545.00" departLane="best">
        <route edges="C1B1 B1B0"/>
    </vehicle>
    <vehicle id="moto104" type="moto_motorcycle" depart="1560.00" departLane="best" departSpeed="max">
        <route edges="C0C1 C1C2 C2C3 C3D3 D3E3"/>
    </vehicle>
    <vehicle id="moto105" type="moto_motorcycle" depart="1575.00" departLane="best">
        <route edges="B2C2 C2C3 C3D3 D3D2 D2C2"/>
    </vehicle>
    <vehicle id="moto106" type="moto_motorcycle" depart="1590.00" departLane="best">
        <route edges="C1D1 D1D2 D2C2 C2B2 B2B1 B1C1 C1C2"/>
    </vehicle>
    <vehicle id="moto107" type="moto_motorcycle" depart="1605.00" departLane="best" departSpeed="max">
        <route edges="E2D2 D2D3 D3E3"/>
    </vehicle>
    <vehicle id="moto108" type="moto_motorcycle" depart="1620.00" departLane="best">
        <route edges="C3B3 B3B2 B2B1 B1C1 C1D1 D1D2"/>
    </vehicle>
    <vehicle id="moto109" type="moto_motorcycle" depart="1635.00" departLane="best" departSpeed="max">
        <route edges="B0B1 B1B2 B2B3 B3B4"/>
    </vehicle>
    <vehicle id="moto110" type="moto_motorcycle" depart="1650.00" departLane="best" departSpeed="max">
        <route edges="E3D3 D3C3 C3C2"/>
    </vehicle>
    <vehicle id="moto111" type="moto_motorcycle" depart="1665.00" departLane="best">
        <route edges="C3B3 B3B2 B2B1 B1C1 C1D1 D1E1"/>
    </vehicle>
    <vehicle id="moto112" type="moto_motorcycle" depart="1680.00" departLane="best" departSpeed="max">
        <route edges="A2B2 B2C2 C2C3 C3C4"/>
    </vehicle>
    <vehicle id="moto113" type="moto_motorcycle" depart="1695.00" departLane="best">
        <route edges="C2C3 C3D3 D3D2 D2E2"/>
    </vehicle>
    <vehicle id="moto114" type="moto_motorcycle" depart="1710.00" departLane="best" departSpeed="max">
        <route edges="B0B1 B1B2 B2B3 B3C3 C3D3 D3E3"/>
    </vehicle>
    <vehicle id="moto115" type="moto_motorcycle" depart="1725.00" departLane="best" departSpeed="max">
        <route edges="A2B2 B2B1"/>
    </vehicle>
    <vehicle id="moto116" type="moto_motorcycle" depart="1740.00" departLane="best">
        <route edges="C3D3 D3D2 D2D1 D1D0"/>
    </vehicle>
    <vehicle id="moto117" type="moto_motorcycle" depart="1755.00" departLane="best">
        <route edges="B2B3 B3C3 C3C2 C2B2 B2B1 B1C1"/>
    </vehicle>
    <vehicle id="moto118" type="moto_motorcycle" depart="1770.00" departLane="best" departSpeed="max">
        <route edges="E1D1 D1C1 C1C2 C2C3 C3B3 B3A3"/>
    </vehicle>
    <vehicle id="moto119" type="moto_motorcycle" depart="1785.00" departLane="best">
        <route edges="C3D3 D3D2 D2C2 C2C3 C3C4"/>
    </vehicle>
</routes>
