<?xml version="1.0" encoding="UTF-8"?>
<!-- generated on 2020-05-27 06:42:21.102562 by randomTrips.py UNKNOWN
  options: -n optimal3.net.xml <doubleminus>seed 42 <doubleminus>fringe-factor 1 -p 5 -o optimal.pedestrian.trips.xml -e 1800 -r optimal.pedestrian.rou.xml <doubleminus>vehicle-class pedestrian <doubleminus>pedestrians <doubleminus>prefix ped <doubleminus>max-distance 2000
-->
<routes xmlns:xsi="http://www.w3.org/2001/XMLSchema-instance" xsi:noNamespaceSchemaLocation="http://sumo.dlr.de/xsd/routes_file.xsd">
    <vType id="ped_pedestrian" vClass="pedestrian"/>
    <person id="ped0" depart="0.00" type="ped_pedestrian">
        <walk from="C4C3" to="A2B2"/>
    </person>
    <person id="ped1" depart="5.00" type="ped_pedestrian">
        <walk from="B3B2" to="B2B3"/>
    </person>
    <person id="ped2" depart="10.00" type="ped_pedestrian">
        <walk from="D1E1" to="D1C1"/>
    </person>
    <person id="ped3" depart="15.00" type="ped_pedestrian">
        <walk from="D3D4" to="B1A1"/>
    </person>
    <person id="ped4" depart="20.00" type="ped_pedestrian">
        <walk from="C1C2" to="A2B2"/>
    </person>
    <person id="ped5" depart="25.00" type="ped_pedestrian">
        <walk from="B2B3" to="C2C3"/>
    </person>
    <person id="ped6" depart="30.00" type="ped_pedestrian">
        <walk from="A2B2" to="B2B1"/>
    </person>
    <person id="ped7" depart="35.00" type="ped_pedestrian">
        <walk from="D0D1" to="C3B3"/>
    </person>
    <person id="ped8" depart="40.00" type="ped_pedestrian">
        <walk from="B2B3" to="C3C4"/>
    </person>
    <person id="ped9" depart="45.00" type="ped_pedestrian">
        <walk from="D2D3" to="A1B1"/>
    </person>
    <person id="ped10" depart="50.00" type="ped_pedestrian">
        <walk from="D2D3" to="D1D0"/>
    </person>
    <person id="ped11" depart="55.00" type="ped_pedestrian">
        <walk from="B4B3" to="B1C1"/>
    </person>
    <person id="ped12" depart="60.00" type="ped_pedestrian">
        <walk from="E1D1" to="B4B3"/>
    </person>
    <person id="ped13" depart="65.00" type="ped_pedestrian">
        <walk from="B1A1" to="B1A1"/>
    </person>
    <person id="ped14" depart="70.00" type="ped_pedestrian">
        <walk from="D3C3" to="C3C4"/>
    </person>
    <person id="ped15" depart="75.00" type="ped_pedestrian">
        <walk from="D2D3" to="D1E1"/>
    </person>
    <person id="ped16" depart="80.00" type="ped_pedestrian">
        <walk from="C2D2" to="E2D2"/>
    </person>
    <person id="ped17" depart="85.00" type="ped_pedestrian">
        <walk from="C1B1" to="C3B3"/>
    </person>
    <person id="ped18" depart="90.00" type="ped_pedestrian">
        <walk from="D2E2" to="C3D3"/>
    </person>
    <person id="ped19" depart="95.00" type="ped_pedestrian">
        <walk from="D3D2" to="C3C2"/>
    </person>
    <person id="ped20" depart="100.00" type="ped_pedestrian">
        <walk from="D1D0" to="A3B3"/>
    </person>
    <person id="ped21" depart="105.00" type="ped_pedestrian">
        <walk from="B2B3" to="B3B2"/>
    </person>
    <person id="ped22" depart="110.00" type="ped_pedestrian">
        <walk from="B0B1" to="B2C2"/>
    </person>
    <person id="ped23" depart="115.00" type="ped_pedestrian">
        <walk from="B1A1" to="B3B2"/>
    </person>
    <person id="ped24" depart="120.00" type="ped_pedestrian">
        <walk from="C4C3" to="C0C1"/>
    </person>
    <person id="ped25" depart="125.00" type="ped_pedestrian">
        <walk from="C0C1" to="B2B3"/>
    </person>
    <person id="ped26" depart="130.00" type="ped_pedestrian">
        <walk from="B3A3" to="D4D3"/>
    </person>
    <person id="ped27" depart="135.00" type="ped_pedestrian">
        <walk from="D0D1" to="C3D3"/>
    </person>
    <person id="ped28" depart="140.00" type="ped_pedestrian">
        <walk from="B2A2" to="D1D2"/>
    </person>
    <person id="ped29" depart="145.00" type="ped_pedestrian">
        <walk from="B1C1" to="C1B1"/>
    </person>
    <person id="ped30" depart="150.00" type="ped_pedestrian">
        <walk from="E3D3" to="C4C3"/>
    </person>
    <person id="ped31" depart="155.00" type="ped_pedestrian">
        <walk from="C3B3" to="D1C1"/>
    </person>
    <person id="ped32" depart="160.00" type="ped_pedestrian">
        <walk from="D3C3" to="D2D1"/>
    </person>
    <person id="ped33" depart="165.00" type="ped_pedestrian">
        <walk from="B2B3" to="A2B2"/>
    </person>
    <person id="ped34" depart="170.00" type="ped_pedestrian">
        <walk from="B3C3" to="B3A3"/>
    </person>
    <person id="ped35" depart="175.00" type="ped_pedestrian">
        <walk from="B2B3" to="E1D1"/>
    </person>
    <person id="ped36" depart="180.00" type="ped_pedestrian">
        <walk from="D3D4" to="B3C3"/>
    </person>
    <person id="ped37" depart="185.00" type="ped_pedestrian">
        <walk from="D0D1" to="C1B1"/>
    </person>
    <person id="ped38" depart="190.00" type="ped_pedestrian">
        <walk from="D3E3" to="C2B2"/>
    </person>
    <person id="ped39" depart="195.00" type="ped_pedestrian">
        <walk from="B3A3" to="B2C2"/>
    </person>
    <person id="ped40" depart="200.00" type="ped_pedestrian">
        <walk from="C3B3" to="B3A3"/>
    </person>
    <person id="ped41" depart="205.00" type="ped_pedestrian">
        <walk from="C3C4" to="D3E3"/>
    </person>
    <person id="ped42" depart="210.00" type="ped_pedestrian">
        <walk from="C1C0" to="B2B3"/>
    </person>
    <person id="ped43" depart="215.00" type="ped_pedestrian">
        <walk from="E3D3" to="C2C3"/>
    </person>
    <person id="ped44" depart="220.00" type="ped_pedestrian">
        <walk from="B1A1" to="A3B3"/>
    </person>
    <person id="ped45" depart="225.00" type="ped_pedestrian">
        <walk from="B1B0" to="C4C3"/>
    </person>
    <person id="ped46" depart="230.00" type="ped_pedestrian">
        <walk from="D2D3" to="C1C2"/>
    </person>
    <person id="ped47" depart="235.00" type="ped_pedestrian">
        <walk from="B0B1" to="C1B1"/>
    </person>
    <person id="ped48" depart="240.00" type="ped_pedestrian">
        <walk from="E3D3" to="C2D2"/>
    </person>
    <person id="ped49" depart="245.00" type="ped_pedestrian">
        <walk from="E2D2" to="D3D2"/>
    </person>
    <person id="ped50" depart="250.00" type="ped_pedestrian">
        <walk from="A1B1" to="D1D2"/>
    </person>
    <person id="ped51" depart="255.00" type="ped_pedestrian">
        <walk from="D1C1" to="C2D2"/>
    </person>
    <person id="ped52" depart="260.00" type="ped_pedestrian">
        <walk from="B3A3" to="C4C3"/>
    </person>
    <person id="ped53" depart="265.00" type="ped_pedestrian">
        <walk from="B1B0" to="C1C2"/>
    </person>
    <person id="ped54" depart="270.00" type="ped_pedestrian">
        <walk from="C1D1" to="E1D1"/>
    </person>
    <person id="ped55" depart="275.00" type="ped_pedestrian">
        <walk from="D3D4" to="B3A3"/>
    </person>
    <person id="ped56" depart="280.00" type="ped_pedestrian">
        <walk from="C2C3" to="B2A2"/>
    </person>
    <person id="ped57" depart="285.00" type="ped_pedestrian">
        <walk from="D3E3" to="D3D2"/>
    </person>
    <person id="ped58" depart="290.00" type="ped_pedestrian">
        <walk from="B3B4" to="C4C3"/>
    </person>
    <person id="ped59" depart="295.00" type="ped_pedestrian">
        <walk from="C3D3" to="B1C1"/>
    </person>
    <person id="ped60" depart="300.00" type="ped_pedestrian">
        <walk from="D2C2" to="C2D2"/>
    </person>
    <person id="ped61" depart="305.00" type="ped_pedestrian">
        <walk from="D2D1" to="C2D2"/>
    </person>
    <person id="ped62" depart="310.00" type="ped_pedestrian">
        <walk from="A1B1" to="B3C3"/>
    </person>
    <person id="ped63" depart="315.00" type="ped_pedestrian">
        <walk from="A1B1" to="D4D3"/>
    </person>
    <person id="ped64" depart="320.00" type="ped_pedestrian">
        <walk from="D3D4" to="D2E2"/>
    </person>
    <person id="ped65" depart="325.00" type="ped_pedestrian">
        <walk from="B3B4" to="A3B3"/>
    </person>
    <person id="ped66" depart="330.00" type="ped_pedestrian">
        <walk from="D3D4" to="E1D1"/>
    </person>
    <person id="ped67" depart="335.00" type="ped_pedestrian">
        <walk from="B1A1" to="C2C1"/>
    </person>
    <person id="ped68" depart="340.00" type="ped_pedestrian">
        <walk from="B0B1" to="D2C2"/>
    </person>
    <person id="ped69" depart="345.00" type="ped_pedestrian">
        <walk from="D2C2" to="B1B2"/>
    </person>
    <person id="ped70" depart="350.00" type="ped_pedestrian">
        <walk from="C2B2" to="C3B3"/>
    </person>
    <person id="ped71" depart="355.00" type="ped_pedestrian">
        <walk from="B3A3" to="D3D2"/>
    </person>
    <person id="ped72" depart="360.00" type="ped_pedestrian">
        <walk from="C1C2" to="B2B3"/>
    </person>
    <person id="ped73" depart="365.00" type="ped_pedestrian">
        <walk from="C2D2" to="D1E1"/>
    </person>
    <person id="ped74" depart="370.00" type="ped_pedestrian">
        <walk from="B2B1" to="B3B4"/>
    </person>
    <person id="ped75" depart="375.00" type="ped_pedestrian">
        <walk from="E3D3" to="D0D1"/>
    </person>
    <person id="ped76" depart="380.00" type="ped_pedestrian">
        <walk from="C1D1" to="C2C3"/>
    </person>
    <person id="ped77" depart="385.00" type="ped_pedestrian">
        <walk from="B1B0" to="B2B3"/>
    </person>
    <person id="ped78" depart="390.00" type="ped_pedestrian">
        <walk from="B4B3" to="C3C4"/>
    </person>
    <person id="ped79" depart="395.00" type="ped_pedestrian">
        <walk from="B2C2" to="B2B3"/>
    </person>
    <person id="ped80" depart="400.00" type="ped_pedestrian">
        <walk from="B0B1" to="C4C3"/>
    </person>
    <person id="ped81" depart="405.00" type="ped_pedestrian">
        <walk from="B2B3" to="D3E3"/>
    </person>
    <person id="ped82" depart="410.00" type="ped_pedestrian">
        <walk from="D3D2" to="B0B1"/>
    </person>
    <person id="ped83" depart="415.00" type="ped_pedestrian">
        <walk from="B2C2" to="D1C1"/>
    </person>
    <person id="ped84" depart="420.00" type="ped_pedestrian">
        <walk from="B2B3" to="B1B2"/>
    </person>
    <person id="ped85" depart="425.00" type="ped_pedestrian">
        <walk from="D4D3" to="C3C2"/>
    </person>
    <person id="ped86" depart="430.00" type="ped_pedestrian">
        <walk from="C2B2" to="D2D1"/>
    </person>
    <person id="ped87" depart="435.00" type="ped_pedestrian">
        <walk from="D2D3" to="B2B1"/>
    </person>
    <person id="ped88" depart="440.00" type="ped_pedestrian">
        <walk from="B1A1" to="C1C2"/>
    </person>
    <person id="ped89" depart="445.00" type="ped_pedestrian">
        <walk from="C1C2" to="C2B2"/>
    </person>
    <person id="ped90" depart="450.00" type="ped_pedestrian">
        <walk from="D1D2" to="D1C1"/>
    </person>
    <person id="ped91" depart="455.00" type="ped_pedestrian">
        <walk from="E3D3" to="B1A1"/>
    </person>
    <person id="ped92" depart="460.00" type="ped_pedestrian">
        <walk from="C1C0" to="B4B3"/>
    </person>
    <person id="ped93" depart="465.00" type="ped_pedestrian">
        <walk from="D3D2" to="B2C2"/>
    </person>
    <person id="ped94" depart="470.00" type="ped_pedestrian">
        <walk from="B2B1" to="C1D1"/>
    </person>
    <person id="ped95" depart="475.00" type="ped_pedestrian">
        <walk from="C1C2" to="B3B2"/>
    </person>
    <person id="ped96" depart="480.00" type="ped_pedestrian">
        <walk from="B2C2" to="D4D3"/>
    </person>
    <person id="ped97" depart="485.00" type="ped_pedestrian">
        <walk from="C1D1" to="D3D2"/>
    </person>
    <person id="ped98" depart="490.00" type="ped_pedestrian">
        <walk from="C3B3" to="A3B3"/>
    </person>
    <person id="ped99" depart="495.00" type="ped_pedestrian">
        <walk from="E3D3" to="D3C3"/>
    </person>
    <person id="ped100" depart="500.00" type="ped_pedestrian">
        <walk from="E2D2" to="D4D3"/>
    </person>
    <person id="ped101" depart="505.00" type="ped_pedestrian">
        <walk from="D3C3" to="B1C1"/>
    </person>
    <person id="ped102" depart="510.00" type="ped_pedestrian">
        <walk from="C2C1" to="B2B3"/>
    </person>
    <person id="ped103" depart="515.00" type="ped_pedestrian">
        <walk from="C1C0" to="A3B3"/>
    </person>
    <person id="ped104" depart="520.00" type="ped_pedestrian">
        <walk from="C1B1" to="E3D3"/>
    </person>
    <person id="ped105" depart="525.00" type="ped_pedestrian">
        <walk from="B3A3" to="D2D1"/>
    </person>
    <person id="ped106" depart="530.00" type="ped_pedestrian">
        <walk from="C1D1" to="C1C2"/>
    </person>
    <person id="ped107" depart="535.00" type="ped_pedestrian">
        <walk from="E1D1" to="E3D3"/>
    </person>
    <person id="ped108" depart="540.00" type="ped_pedestrian">
        <walk from="C3B3" to="D1D2"/>
    </person>
    <person id="ped109" depart="545.00" type="ped_pedestrian">
        <walk from="B1C1" to="B3B4"/>
    </person>
    <person id="ped110" depart="550.00" type="ped_pedestrian">
        <walk from="E2D2" to="C3C2"/>
    </person>
    <person id="ped111" depart="555.00" type="ped_pedestrian">
        <walk from="C3B3" to="D1E1"/>
    </person>
    <person id="ped112" depart="560.00" type="ped_pedestrian">
        <walk from="A3B3" to="C3C4"/>
    </person>
    <person id="ped113" depart="565.00" type="ped_pedestrian">
        <walk from="C2C3" to="D3C3"/>
    </person>
    <person id="ped114" depart="570.00" type="ped_pedestrian">
        <walk from="B1C1" to="E2D2"/>
    </person>
    <person id="ped115" depart="575.00" type="ped_pedestrian">
        <walk from="B0B1" to="B2A2"/>
    </person>
    <person id="ped116" depart="580.00" type="ped_pedestrian">
        <walk from="C3C4" to="D1C1"/>
    </person>
    <person id="ped117" depart="585.00" type="ped_pedestrian">
        <walk from="B2C2" to="B1B0"/>
    </person>
    <person id="ped118" depart="590.00" type="ped_pedestrian">
        <walk from="D3D4" to="B2C2"/>
    </person>
    <person id="ped119" depart="595.00" type="ped_pedestrian">
        <walk from="C3C4" to="C3D3"/>
    </person>
    <person id="ped120" depart="600.00" type="ped_pedestrian">
        <walk from="C1C2" to="C3C4"/>
    </person>
    <person id="ped121" depart="605.00" type="ped_pedestrian">
        <walk from="C2D2" to="D4D3"/>
    </person>
    <person id="ped122" depart="610.00" type="ped_pedestrian">
        <walk from="B2B1" to="D1D2"/>
    </person>
    <person id="ped123" depart="615.00" type="ped_pedestrian">
        <walk from="B2C2" to="C1B1"/>
    </person>
    <person id="ped124" depart="620.00" type="ped_pedestrian">
        <walk from="D1C1" to="B3B4"/>
    </person>
    <person id="ped125" depart="625.00" type="ped_pedestrian">
        <walk from="B3C3" to="D2C2"/>
    </person>
    <person id="ped126" depart="630.00" type="ped_pedestrian">
        <walk from="B0B1" to="C1D1"/>
    </person>
    <person id="ped127" depart="635.00" type="ped_pedestrian">
        <walk from="E3D3" to="E3D3"/>
    </person>
    <person id="ped128" depart="640.00" type="ped_pedestrian">
        <walk from="B0B1" to="B2B3"/>
    </person>
    <person id="ped129" depart="645.00" type="ped_pedestrian">
        <walk from="B3A3" to="D4D3"/>
    </person>
    <person id="ped130" depart="650.00" type="ped_pedestrian">
        <walk from="D3D4" to="D3D4"/>
    </person>
    <person id="ped131" depart="655.00" type="ped_pedestrian">
        <walk from="C0C1" to="B1C1"/>
    </person>
    <person id="ped132" depart="660.00" type="ped_pedestrian">
        <walk from="D3C3" to="D1D0"/>
    </person>
    <person id="ped133" depart="665.00" type="ped_pedestrian">
        <walk from="C3D3" to="E3D3"/>
    </person>
    <person id="ped134" depart="670.00" type="ped_pedestrian">
        <walk from="D0D1" to="A1B1"/>
    </person>
    <person id="ped135" depart="675.00" type="ped_pedestrian">
        <walk from="D2E2" to="B3B4"/>
    </person>
    <person id="ped136" depart="680.00" type="ped_pedestrian">
        <walk from="D0D1" to="E1D1"/>
    </person>
    <person id="ped137" depart="685.00" type="ped_pedestrian">
        <walk from="B1B2" to="B1B0"/>
    </person>
    <person id="ped138" depart="690.00" type="ped_pedestrian">
        <walk from="B1B0" to="C3B3"/>
    </person>
    <person id="ped139" depart="695.00" type="ped_pedestrian">
        <walk from="B3B2" to="C3D3"/>
    </person>
    <person id="ped140" depart="700.00" type="ped_pedestrian">
        <walk from="D1D2" to="B2B1"/>
    </person>
    <person id="ped141" depart="705.00" type="ped_pedestrian">
        <walk from="C4C3" to="B3A3"/>
    </person>
    <person id="ped142" depart="710.00" type="ped_pedestrian">
        <walk from="C2C1" to="D3E3"/>
    </person>
    <person id="ped143" depart="715.00" type="ped_pedestrian">
        <walk from="D3C3" to="B1A1"/>
    </person>
    <person id="ped144" depart="720.00" type="ped_pedestrian">
        <walk from="C1C2" to="B3B2"/>
    </person>
    <person id="ped145" depart="725.00" type="ped_pedestrian">
        <walk from="A1B1" to="D2D1"/>
    </person>
    <person id="ped146" depart="730.00" type="ped_pedestrian">
        <walk from="C4C3" to="B3A3"/>
    </person>
    <person id="ped147" depart="735.00" type="ped_pedestrian">
        <walk from="D1E1" to="C3B3"/>
    </person>
    <person id="ped148" depart="740.00" type="ped_pedestrian">
        <walk from="C1C2" to="A1B1"/>
    </person>
    <person id="ped149" depart="745.00" type="ped_pedestrian">
        <walk from="B0B1" to="D3D4"/>
    </person>
    <person id="ped150" depart="750.00" type="ped_pedestrian">
        <walk from="D3E3" to="C3B3"/>
    </person>
    <person id="ped151" depart="755.00" type="ped_pedestrian">
        <walk from="D3C3" to="C3C2"/>
    </person>
    <person id="ped152" depart="760.00" type="ped_pedestrian">
        <walk from="B1C1" to="B1B2"/>
    </person>
    <person id="ped153" depart="765.00" type="ped_pedestrian">
        <walk from="B3B4" to="D3E3"/>
    </person>
    <person id="ped154" depart="770.00" type="ped_pedestrian">
        <walk from="D2D3" to="D3D2"/>
    </person>
    <person id="ped155" depart="775.00" type="ped_pedestrian">
        <walk from="D3E3" to="B2B3"/>
    </person>
    <person id="ped156" depart="780.00" type="ped_pedestrian">
        <walk from="B2C2" to="B1A1"/>
    </person>
    <person id="ped157" depart="785.00" type="ped_pedestrian">
        <walk from="D2D1" to="D3D4"/>
    </person>
    <person id="ped158" depart="790.00" type="ped_pedestrian">
        <walk from="C1C0" to="C3D3"/>
    </person>
    <person id="ped159" depart="795.00" type="ped_pedestrian">
        <walk from="B1C1" to="D4D3"/>
    </person>
    <person id="ped160" depart="800.00" type="ped_pedestrian">
        <walk from="D3D2" to="E2D2"/>
    </person>
    <person id="ped161" depart="805.00" type="ped_pedestrian">
        <walk from="D2D3" to="D3D4"/>
    </person>
    <person id="ped162" depart="810.00" type="ped_pedestrian">
        <walk from="A2B2" to="D1E1"/>
    </person>
    <person id="ped163" depart="815.00" type="ped_pedestrian">
        <walk from="B3C3" to="D4D3"/>
    </person>
    <person id="ped164" depart="820.00" type="ped_pedestrian">
        <walk from="D2D3" to="D3D2"/>
    </person>
    <person id="ped165" depart="825.00" type="ped_pedestrian">
        <walk from="D2D3" to="B3A3"/>
    </person>
    <person id="ped166" depart="830.00" type="ped_pedestrian">
        <walk from="D2D1" to="B1B0"/>
    </person>
    <person id="ped167" depart="835.00" type="ped_pedestrian">
        <walk from="D3D2" to="D3D2"/>
    </person>
    <person id="ped168" depart="840.00" type="ped_pedestrian">
        <walk from="B2B3" to="D2E2"/>
    </person>
    <person id="ped169" depart="845.00" type="ped_pedestrian">
        <walk from="C2B2" to="B3B4"/>
    </person>
    <person id="ped170" depart="850.00" type="ped_pedestrian">
        <walk from="D2D3" to="B2B3"/>
    </person>
    <person id="ped171" depart="855.00" type="ped_pedestrian">
        <walk from="A2B2" to="B2B1"/>
    </person>
    <person id="ped172" depart="860.00" type="ped_pedestrian">
        <walk from="B3C3" to="D3D2"/>
    </person>
    <person id="ped173" depart="865.00" type="ped_pedestrian">
        <walk from="E2D2" to="B3B2"/>
    </person>
    <person id="ped174" depart="870.00" type="ped_pedestrian">
        <walk from="C4C3" to="C1C0"/>
    </person>
    <person id="ped175" depart="875.00" type="ped_pedestrian">
        <walk from="E3D3" to="C2D2"/>
    </person>
    <person id="ped176" depart="880.00" type="ped_pedestrian">
        <walk from="E1D1" to="B1B0"/>
    </person>
    <person id="ped177" depart="885.00" type="ped_pedestrian">
        <walk from="E2D2" to="B2A2"/>
    </person>
    <person id="ped178" depart="890.00" type="ped_pedestrian">
        <walk from="E2D2" to="B3A3"/>
    </person>
    <person id="ped179" depart="895.00" type="ped_pedestrian">
        <walk from="B1B0" to="C1C2"/>
    </person>
    <person id="ped180" depart="900.00" type="ped_pedestrian">
        <walk from="D1D2" to="B3C3"/>
    </person>
    <person id="ped181" depart="905.00" type="ped_pedestrian">
        <walk from="C3D3" to="C2C3"/>
    </person>
    <person id="ped182" depart="910.00" type="ped_pedestrian">
        <walk from="C1B1" to="C3C2"/>
    </person>
    <person id="ped183" depart="915.00" type="ped_pedestrian">
        <walk from="B3A3" to="D1D2"/>
    </person>
    <person id="ped184" depart="920.00" type="ped_pedestrian">
        <walk from="A1B1" to="D4D3"/>
    </person>
    <person id="ped185" depart="925.00" type="ped_pedestrian">
        <walk from="C2D2" to="D1D2"/>
    </person>
    <person id="ped186" depart="930.00" type="ped_pedestrian">
        <walk from="D1E1" to="D1C1"/>
    </person>
    <person id="ped187" depart="935.00" type="ped_pedestrian">
        <walk from="C0C1" to="B0B1"/>
    </person>
    <person id="ped188" depart="940.00" type="ped_pedestrian">
        <walk from="D0D1" to="B3C3"/>
    </person>
    <person id="ped189" depart="945.00" type="ped_pedestrian">
        <walk from="B3C3" to="D3C3"/>
    </person>
    <person id="ped190" depart="950.00" type="ped_pedestrian">
        <walk from="D1D2" to="B3B4"/>
    </person>
    <person id="ped191" depart="955.00" type="ped_pedestrian">
        <walk from="B3B4" to="C1C0"/>
    </person>
    <person id="ped192" depart="960.00" type="ped_pedestrian">
        <walk from="C1C0" to="B3B4"/>
    </person>
    <person id="ped193" depart="965.00" type="ped_pedestrian">
        <walk from="B1B2" to="C1C2"/>
    </person>
    <person id="ped194" depart="970.00" type="ped_pedestrian">
        <walk from="E1D1" to="D1C1"/>
    </person>
    <person id="ped195" depart="975.00" type="ped_pedestrian">
        <walk from="D3E3" to="C3D3"/>
    </person>
    <person id="ped196" depart="980.00" type="ped_pedestrian">
        <walk from="B3B4" to="C3B3"/>
    </person>
    <person id="ped197" depart="985.00" type="ped_pedestrian">
        <walk from="A1B1" to="B3B2"/>
    </person>
    <person id="ped198" depart="990.00" type="ped_pedestrian">
        <walk from="C1C2" to="C3C2"/>
    </person>
    <person id="ped199" depart="995.00" type="ped_pedestrian">
        <walk from="D0D1" to="C2B2"/>
    </person>
    <person id="ped200" depart="1000.00" type="ped_pedestrian">
        <walk from="C1D1" to="B2B3"/>
    </person>
    <person id="ped201" depart="1005.00" type="ped_pedestrian">
        <walk from="C2B2" to="D3E3"/>
    </person>
    <person id="ped202" depart="1010.00" type="ped_pedestrian">
        <walk from="D2D3" to="B2A2"/>
    </person>
    <person id="ped203" depart="1015.00" type="ped_pedestrian">
        <walk from="B1A1" to="C2C3"/>
    </person>
    <person id="ped204" depart="1020.00" type="ped_pedestrian">
        <walk from="C4C3" to="B4B3"/>
    </person>
    <person id="ped205" depart="1025.00" type="ped_pedestrian">
        <walk from="D2E2" to="D2C2"/>
    </person>
    <person id="ped206" depart="1030.00" type="ped_pedestrian">
        <walk from="D1C1" to="B2B3"/>
    </person>
    <person id="ped207" depart="1035.00" type="ped_pedestrian">
        <walk from="B2B1" to="A2B2"/>
    </person>
    <person id="ped208" depart="1040.00" type="ped_pedestrian">
        <walk from="B2C2" to="C2B2"/>
    </person>
    <person id="ped209" depart="1045.00" type="ped_pedestrian">
        <walk from="D3C3" to="B0B1"/>
    </person>
    <person id="ped210" depart="1050.00" type="ped_pedestrian">
        <walk from="C1C0" to="C4C3"/>
    </person>
    <person id="ped211" depart="1055.00" type="ped_pedestrian">
        <walk from="B2B1" to="D1D0"/>
    </person>
    <person id="ped212" depart="1060.00" type="ped_pedestrian">
        <walk from="C2C1" to="B2C2"/>
    </person>
    <person id="ped213" depart="1065.00" type="ped_pedestrian">
        <walk from="D0D1" to="A1B1"/>
    </person>
    <person id="ped214" depart="1070.00" type="ped_pedestrian">
        <walk from="D2C2" to="D2C2"/>
    </person>
    <person id="ped215" depart="1075.00" type="ped_pedestrian">
        <walk from="B1B0" to="C1C2"/>
    </person>
    <person id="ped216" depart="1080.00" type="ped_pedestrian">
        <walk from="B2A2" to="E1D1"/>
    </person>
    <person id="ped217" depart="1085.00" type="ped_pedestrian">
        <walk from="C2C3" to="A3B3"/>
    </person>
    <person id="ped218" depart="1090.00" type="ped_pedestrian">
        <walk from="B2C2" to="D3C3"/>
    </person>
    <person id="ped219" depart="1095.00" type="ped_pedestrian">
        <walk from="C1D1" to="D2D3"/>
    </person>
    <person id="ped220" depart="1100.00" type="ped_pedestrian">
        <walk from="D1C1" to="E3D3"/>
    </person>
    <person id="ped221" depart="1105.00" type="ped_pedestrian">
        <walk from="C3C4" to="E1D1"/>
    </person>
    <person id="ped222" depart="1110.00" type="ped_pedestrian">
        <walk from="D3D4" to="C3D3"/>
    </person>
    <person id="ped223" depart="1115.00" type="ped_pedestrian">
        <walk from="D1D2" to="C2C3"/>
    </person>
    <person id="ped224" depart="1120.00" type="ped_pedestrian">
        <walk from="D2E2" to="C3B3"/>
    </person>
    <person id="ped225" depart="1125.00" type="ped_pedestrian">
        <walk from="D3E3" to="D1E1"/>
    </person>
    <person id="ped226" depart="1130.00" type="ped_pedestrian">
        <walk from="C2B2" to="B3A3"/>
    </person>
    <person id="ped227" depart="1135.00" type="ped_pedestrian">
        <walk from="B2C2" to="C4C3"/>
    </person>
    <person id="ped228" depart="1140.00" type="ped_pedestrian">
        <walk from="D2C2" to="C2D2"/>
    </person>
    <person id="ped229" depart="1145.00" type="ped_pedestrian">
        <walk from="C4C3" to="B3B2"/>
    </person>
    <person id="ped230" depart="1150.00" type="ped_pedestrian">
        <walk from="B0B1" to="B3B2"/>
    </person>
    <person id="ped231" depart="1155.00" type="ped_pedestrian">
        <walk from="B3B2" to="B3C3"/>
    </person>
    <person id="ped232" depart="1160.00" type="ped_pedestrian">
        <walk from="C2D2" to="B1B2"/>
    </person>
    <person id="ped233" depart="1165.00" type="ped_pedestrian">
        <walk from="B2C2" to="D1D0"/>
    </person>
    <person id="ped234" depart="1170.00" type="ped_pedestrian">
        <walk from="D1D0" to="B0B1"/>
    </person>
    <person id="ped235" depart="1175.00" type="ped_pedestrian">
        <walk from="C1C0" to="C3B3"/>
    </person>
    <person id="ped236" depart="1180.00" type="ped_pedestrian">
        <walk from="C1C0" to="B2B1"/>
    </person>
    <person id="ped237" depart="1185.00" type="ped_pedestrian">
        <walk from="C1C2" to="D3E3"/>
    </person>
    <person id="ped238" depart="1190.00" type="ped_pedestrian">
        <walk from="C3C4" to="D1D0"/>
    </person>
    <person id="ped239" depart="1195.00" type="ped_pedestrian">
        <walk from="D3D2" to="D2C2"/>
    </person>
    <person id="ped240" depart="1200.00" type="ped_pedestrian">
        <walk from="C1B1" to="A1B1"/>
    </person>
    <person id="ped241" depart="1205.00" type="ped_pedestrian">
        <walk from="B4B3" to="D2C2"/>
    </person>
    <person id="ped242" depart="1210.00" type="ped_pedestrian">
        <walk from="D3C3" to="E1D1"/>
    </person>
    <person id="ped243" depart="1215.00" type="ped_pedestrian">
        <walk from="C1C2" to="D1E1"/>
    </person>
    <person id="ped244" depart="1220.00" type="ped_pedestrian">
        <walk from="C3B3" to="C3C4"/>
    </person>
    <person id="ped245" depart="1225.00" type="ped_pedestrian">
        <walk from="B2B3" to="B2B3"/>
    </person>
    <person id="ped246" depart="1230.00" type="ped_pedestrian">
        <walk from="C1C2" to="A2B2"/>
    </person>
    <person id="ped247" depart="1235.00" type="ped_pedestrian">
        <walk from="B4B3" to="D1C1"/>
    </person>
    <person id="ped248" depart="1240.00" type="ped_pedestrian">
        <walk from="C1C0" to="B1C1"/>
    </person>
    <person id="ped249" depart="1245.00" type="ped_pedestrian">
        <walk from="C2B2" to="B1B2"/>
    </person>
    <person id="ped250" depart="1250.00" type="ped_pedestrian">
        <walk from="C3D3" to="A2B2"/>
    </person>
    <person id="ped251" depart="1255.00" type="ped_pedestrian">
        <walk from="C1B1" to="C3C2"/>
    </person>
    <person id="ped252" depart="1260.00" type="ped_pedestrian">
        <walk from="A2B2" to="C4C3"/>
    </person>
    <person id="ped253" depart="1265.00" type="ped_pedestrian">
        <walk from="B1B2" to="C2B2"/>
    </person>
    <person id="ped254" depart="1270.00" type="ped_pedestrian">
        <walk from="A3B3" to="C1B1"/>
    </person>
    <person id="ped255" depart="1275.00" type="ped_pedestrian">
        <walk from="B2B3" to="B3C3"/>
    </person>