<?xml version="1.0" encoding="UTF-8"?>

<!-- generated on 06/23/20 13:19:28 by Eclipse SUMO duarouter Version 1.6.0
<configuration xmlns:xsi="http://www.w3.org/2001/XMLSchema-instance" xsi:noNamespaceSchemaLocation="http://sumo.dlr.de/xsd/duarouterConfiguration.xsd">

    <input>
        <net-file value="optimal.net.xml"/>
        <route-files value="optimal.bus.trips.xml"/>
    </input>

    <output>
        <output-file value="optimal.bus.trips.xml.tmp"/>
        <write-trips value="true"/>
    </output>

    <time>
        <begin value="0"/>
        <end value="1800.0"/>
    </time>

    <report>
        <no-warnings value="true"/>
        <ignore-errors value="true"/>
        <no-step-log value="true"/>
    </report>

</configuration>
-->

<routes xmlns:xsi="http://www.w3.org/2001/XMLSchema-instance" xsi:noNamespaceSchemaLocation="http://sumo.dlr.de/xsd/routes_file.xsd">
    <vType id="bus_bus" vClass="bus"/>
    <trip id="bus0" type="bus_bus" depart="0.00" departLane="best" departSpeed="max" from="D4D3" to="D2E2" via="B1B2"/>
    <trip id="bus1" type="bus_bus" depart="22.00" departLane="best" departSpeed="max" from="B0B1" to="B1B0" via="B3C3"/>
    <trip id="bus2" type="bus_bus" depart="44.00" departLane="best" departSpeed="max" from="C0C1" to="D3E3" via="B3B2"/>
    <trip id="bus3" type="bus_bus" depart="66.00" departLane="best" departSpeed="max" from="E1D1" to="D1E1" via="B1B2"/>
    <trip id="bus4" type="bus_bus" depart="88.00" departLane="best" departSpeed="max" from="A3B3" to="B1B0" via="D3D2"/>
    <trip id="bus5" type="bus_bus" depart="110.00" departLane="best" departSpeed="max" from="B0B1" to="D1D0" via="C3B3"/>
    <trip id="bus6" type="bus_bus" depart="132.00" departLane="best" departSpeed="max" from="E2D2" to="D1E1" via="B2C2"/>
    <trip id="bus7" type="bus_bus" depart="154.00" departLane="best" departSpeed="max" from="A1B1" to="B3B4" via="D1C1"/>
    <trip id="bus8" type="bus_bus" depart="176.00" departLane="best" departSpeed="max" from="E3D3" to="D3E3" via="B2C2"/>
    <trip id="bus9" type="bus_bus" depart="198.00" departLane="best" departSpeed="max" from="C0C1" to="D1D0" via="D3C3"/>
    <trip id="bus10" type="bus_bus" depart="220.00" departLane="best" departSpeed="max" from="B4B3" to="B3B4" via="B1B2"/>
    <trip id="bus11" type="bus_bus" depart="242.00" departLane="best" departSpeed="max" from="E3D3" to="D2E2" via="B3C3"/>
    <trip id="bus12" type="bus_bus" depart="264.00" departLane="best" departSpeed="max" from="B4B3" to="D2E2" via="B1B2"/>
    <trip id="bus13" type="bus_bus" depart="286.00" departLane="best" departSpeed="max" from="B0B1" to="D2E2" via="B3B2"/>
    <trip id="bus14" type="bus_bus" depart="308.00" departLane="best" departSpeed="max" from="A2B2" to="C3C4" via="D1D2"/>
    <trip id="bus15" type="bus_bus" depart="330.00" departLane="best" departSpeed="max" from="B0B1" to="D1D0" via="B3B2"/>
    <trip id="bus16" type="bus_bus" depart="352.00" departLane="best" departSpeed="max" from="D0D1" to="C1C0" via="D3C3"/>
    <trip id="bus17" type="bus_bus" depart="374.00" departLane="best" departSpeed="max" from="D4D3" to="D3D4" via="C1D1"/>
    <trip id="bus18" type="bus_bus" depart="396.00" departLane="best" departSpeed="max" from="D4D3" to="D1E1" via="B1C1"/>
    <trip id="bus19" type="bus_bus" depart="418.00" departLane="best" departSpeed="max" from="A1B1" to="B3A3" via="D2C2"/>
    <trip id="bus20" type="bus_bus" depart="440.00" departLane="best" departSpeed="max" from="C0C1" to="D2E2" via="B3C3"/>
    <trip id="bus21" type="bus_bus" depart="462.00" departLane="best" departSpeed="max" from="D4D3" to="B3B4" via="D1C1"/>
    <trip id="bus22" type="bus_bus" depart="484.00" departLane="best" departSpeed="max" from="B4B3" to="B1A1" via="D1D2"/>
    <trip id="bus23" type="bus_bus" depart="506.00" departLane="best" departSpeed="max" from="E2D2" to="B1B0" via="B3B2"/>
    <trip id="bus24" type="bus_bus" depart="528.00" departLane="best" departSpeed="max" from="C0C1" to="B1A1" via="D3C3"/>
    <trip id="bus25" type="bus_bus" depart="550.00" departLane="best" departSpeed="max" from="A1B1" to="B2A2" via="D2D1"/>
    <trip id="bus26" type="bus_bus" depart="572.00" departLane="best" departSpeed="max" from="A3B3" to="B1B0" via="D3C3"/>
    <trip id="bus27" type="bus_bus" depart="594.00" departLane="best" departSpeed="max" from="B4B3" to="C3C4" via="D1D2"/>
    <trip id="bus28" type="bus_bus" depart="616.00" departLane="best" departSpeed="max" from="D0D1" to="D1D0" via="B3C3"/>
    <trip id="bus29" type="bus_bus" depart="638.00" departLane="best" departSpeed="max" from="B4B3" to="D1E1" via="B1B2"/>
    <trip id="bus30" type="bus_bus" depart="660.00" departLane="best" departSpeed="max" from="A2B2" to="B1A1" via="D2D1"/>
    <trip id="bus31" type="bus_bus" depart="682.00" departLane="best" departSpeed="max" from="D4D3" to="B3B4" via="D1C1"/>
    <trip id="bus32" type="bus_bus" depart="704.00" departLane="best" departSpeed="max" from="C4C3" to="B1A1" via="D1D2"/>
    <trip id="bus33" type="bus_bus" depart="726.00" departLane="best" departSpeed="max" from="A2B2" to="B3B4" via="D1D2"/>
    <trip id="bus34" type="bus_bus" depart="748.00" departLane="best" departSpeed="max" from="A3B3" to="B1A1" via="D1D2"/>
    <trip id="bus35" type="bus_bus" depart="770.00" departLane="best" departSpeed="max" from="A2B2" to="D1D0" via="D3D2"/>
    <trip id="bus36" type="bus_bus" depart="792.00" departLane="best" departSpeed="max" from="B0B1" to="C1C0" via="D3D2"/>
    <trip id="bus37" type="bus_bus" depart="814.00" departLane="best" departSpeed="max" from="A3B3" to="B2A2" via="D3C3"/>
    <trip id="bus38" type="bus_bus" depart="836.00" departLane="best" departSpeed="max" from="D0D1" to="D3E3" via="B3C3"/>
    <trip id="bus39" type="bus_bus" depart="858.00" departLane="best" departSpeed="max" from="B4B3" to="C3C4" via="C1D1"/>
    <trip id="bus40" type="bus_bus" depart="880.00" departLane="best" departSpeed="max" from="D4D3" to="C3C4" via="B1B2"/>
    <trip id="bus41" type="bus_bus" depart="902.00" departLane="best" departSpeed="max" from="E3D3" to="D3E3" via="B3C3"/>
    <trip id="bus42" type="bus_bus" depart="924.00" departLane="best" departSpeed="max" from="D0D1" to="B1B0" via="C3D3"/>
    <trip id="bus43" type="bus_bus" depart="946.00" departLane="best" departSpeed="max" from="C4C3" to="C3C4" via="C1D1"/>
    <trip id="bus44" type="bus_bus" depart="968.00" departLane="best" departSpeed="max" from="B0B1" to="D1E1" via="B3B2"/>
    <trip id="bus45" type="bus_bus" depart="990.00" departLane="best" departSpeed="max" from="D4D3" to="C3C4" via="D1C1"/>
    <trip id="bus46" type="bus_bus" depart="1012.00" departLane="best" departSpeed="max" from="E1D1" to="D1E1" via="B2B1"/>
    <trip id="bus47" type="bus_bus" depart="1034.00" departLane="best" departSpeed="max" from="B0B1" to="D1D0" via="B3C3"/>
    <trip id="bus48" type="bus_bus" depart="1056.00" departLane="best" departSpeed="max" from="E3D3" to="D3D4" via="B1B2"/>
    <trip id="bus49" type="bus_bus" depart="1078.00" departLane="best" departSpeed="max" from="E3D3" to="D3E3" via="B2B1"/>
    <trip id="bus50" type="bus_bus" depart="1100.00" departLane="best" departSpeed="max" from="B4B3" to="C3C4" via="C1D1"/>
    <trip id="bus51" type="bus_bus" depart="1122.00" departLane="best" departSpeed="max" from="A3B3" to="B2A2" via="D2C2"/>
    <trip id="bus52" type="bus_bus" depart="1144.00" departLane="best" departSpeed="max" from="E1D1" to="D1E1" via="B3B2"/>
    <trip id="bus53" type="bus_bus" depart="1166.00" departLane="best" departSpeed="max" from="B4B3" to="C3C4" via="C1D1"/>
    <trip id="bus54" type="bus_bus" depart="1188.00" departLane="best" departSpeed="max" from="E3D3" to="D1D0" via="B3B2"/>
    <trip id="bus55" type="bus_bus" depart="1210.00" departLane="best" departSpeed="max" from="D4D3" to="D3E3" via="B1C1"/>
    <trip id="bus56" type="bus_bus" depart="1232.00" departLane="best" departSpeed="max" from="D4D3" to="D3D4" via="C1C2"/>
    <trip id="bus57" type="bus_bus" depart="1254.00" departLane="best" departSpeed="max" from="A2B2" to="B2A2" via="D2D1"/>
    <trip id="bus58" type="bus_bus" depart="1276.00" departLane="best" departSpeed="max" from="D0D1" to="D1D0" via="C3D3"/>
    <trip id="bus59" type="bus_bus" depart="1298.00" departLane="best" departSpeed="max" from="E1D1" to="D1E1" via="B3B2"/>
    <trip id="bus60" type="bus_bus" depart="1320.00" departLane="best" departSpeed="max" from="E2D2" to="D1D0" via="B3C3"/>
    <trip id="bus61" type="bus_bus" depart="1342.00" departLane="best" from="D1D2" to="D1D0" via="B3B2"/>
    <trip id="bus62" type="bus_bus" depart="1364.00" departLane="best" departSpeed="max" from="C0C1" to="B1B0" via="C3D3"/>
    <trip id="bus63" type="bus_bus" depart="1386.00" departLane="best" departSpeed="max" from="D4D3" to="B2A2" via="D1C1"/>
    <trip id="bus64" type="bus_bus" depart="1408.00" departLane="best" departSpeed="max" from="A3B3" to="B3A3" via="D1D2"/>
    <trip id="bus65" type="bus_bus" depart="1430.00" departLane="best" departSpeed="max" from="E1D1" to="C1D1" via="B3B2"/>
    <trip id="bus66" type="bus_bus" depart="1452.00" departLane="best" departSpeed="max" from="E2D2" to="D2E2" via="B2C2"/>
    <trip id="bus67" type="bus_bus" depart="1474.00" departLane="best" departSpeed="max" from="D0D1" to="D3E3" via="B3C3"/>
    <trip id="bus68" type="bus_bus" depart="1496.00" departLane="best" departSpeed="max" from="D0D1" to="D2E2" via="B3C3"/>
    <trip id="bus69" type="bus_bus" depart="1518.00" departLane="best" departSpeed="max" from="E2D2" to="D3E3" via="B1C1"/>
    <trip id="bus70" type="bus_bus" depart="1540.00" departLane="best" departSpeed="max" from="B4B3" to="C3C4" via="B1B2"/>
    <trip id="bus71" type="bus_bus" depart="1562.00" departLane="best" departSpeed="max" from="E2D2" to="D1E1" via="B2B3"/>
    <trip id="bus72" type="bus_bus" depart="1584.00" departLane="best" departSpeed="max" from="B0B1" to="B2A2" via="D3D2"/>
    <trip id="bus73" type="bus_bus" depart="1606.00" departLane="best" departSpeed="max" from="E2D2" to="D1E1" via="B2B1"/>
    <trip id="bus74" type="bus_bus" depart="1628.00" departLane="best" departSpeed="max" from="A3B3" to="B2A2" via="D2D3"/>
    <trip id="bus75" type="bus_bus" depart="1650.00" departLane="best" departSpeed="max" from="B0B1" to="B1B0" via="B3C3"/>
    <trip id="bus76" type="bus_bus" depart="1672.00" departLane="best" departSpeed="max" from="A3B3" to="B2A2" via="D1D2"/>
    <trip id="bus77" type="bus_bus" depart="1694.00" departLane="best" departSpeed="max" from="B0B1" to="D2E2" via="B3B2"/>
    <trip id="bus78" type="bus_bus" depart="1716.00" departLane="best" departSpeed="max" from="D0D1" to="C1C0" via="B3C3"/>
    <trip id="bus79" type="bus_bus" depart="1738.00" departLane="best" departSpeed="max" from="A2B2" to="D1D0" via="D3D2"/>
    <trip id="bus80" type="bus_bus" depart="1760.00" departLane="best" departSpeed="max" from="E1D1" to="D1E1" via="B3C3"/>
    <trip id="bus81" type="bus_bus" depart="1782.00" departLane="best" departSpeed="max" from="E3D3" to="C1C0" via="B3C3"/>
</routes>
