<?xml version="1.0" encoding="UTF-8"?>

<!-- generated on 05/11/20 11:10:24 by Eclipse SUMO duarouter Version 1.3.1
<configuration xmlns:xsi="http://www.w3.org/2001/XMLSchema-instance" xsi:noNamespaceSchemaLocation="http://sumo.dlr.de/xsd/duarouterConfiguration.xsd">

    <input>
        <net-file value="optimal3.net.xml"/>
        <route-files value="optimal.bicycle.trips.xml"/>
    </input>

    <output>
        <output-file value="optimal.bicycle.trips.xml.tmp"/>
        <write-trips value="true"/>
    </output>

    <time>
        <begin value="0"/>
        <end value="1800.0"/>
    </time>

    <report>
        <no-warnings value="true"/>
        <ignore-errors value="true"/>
        <no-step-log value="true"/>
    </report>

</configuration>
-->

<routes xmlns:xsi="http://www.w3.org/2001/XMLSchema-instance" xsi:noNamespaceSchemaLocation="http://sumo.dlr.de/xsd/routes_file.xsd">
    <vType id="bike_bicycle" vClass="bicycle"/>
    <trip id="bike0" type="bike_bicycle" depart="0.00" departLane="best" departSpeed="max" from="C4C3" to="B1A1"/>
    <trip id="bike1" type="bike_bicycle" depart="9.58" departLane="best" from="B3B2" to="B2C2"/>
    <trip id="bike2" type="bike_bicycle" depart="19.15" departLane="best" from="D2C2" to="D1D0"/>
    <trip id="bike3" type="bike_bicycle" depart="28.73" departLane="best" departSpeed="max" from="E1D1" to="B1B2"/>
    <trip id="bike4" type="bike_bicycle" depart="38.30" departLane="best" from="C1C2" to="B1A1"/>
    <trip id="bike5" type="bike_bicycle" depart="47.88" departLane="best" from="B2B1" to="C2C3"/>
    <trip id="bike6" type="bike_bicycle" depart="57.45" departLane="best" departSpeed="max" from="A1B1" to="B2B3"/>
    <trip id="bike7" type="bike_bicycle" depart="67.03" departLane="best" departSpeed="max" from="D0D1" to="C3B3"/>
    <trip id="bike8" type="bike_bicycle" depart="76.60" departLane="best" from="B2B1" to="C3C4"/>
    <trip id="bike9" type="bike_bicycle" depart="86.18" departLane="best" from="D3C3" to="B1A1"/>
    <trip id="bike10" type="bike_bicycle" depart="95.75" departLane="best" from="D3C3" to="D1D0"/>
    <trip id="bike11" type="bike_bicycle" depart="105.33" departLane="best" departSpeed="max" from="B4B3" to="B2A2"/>
    <trip id="bike12" type="bike_bicycle" depart="114.91" departLane="best" departSpeed="max" from="E2D2" to="B3C3"/>
    <trip id="bike13" type="bike_bicycle" depart="124.48" departLane="best" departSpeed="max" from="A3B3" to="B1B2"/>
    <trip id="bike14" type="bike_bicycle" depart="134.06" departLane="best" departSpeed="max" from="D4D3" to="C3C4"/>
    <trip id="bike15" type="bike_bicycle" depart="143.63" departLane="best" from="D3C3" to="D1E1"/>
    <trip id="bike16" type="bike_bicycle" depart="153.21" departLane="best" from="C2D2" to="D3E3"/>
    <trip id="bike17" type="bike_bicycle" depart="162.78" departLane="best" departSpeed="max" from="C0C1" to="C3B3"/>
    <trip id="bike18" type="bike_bicycle" depart="172.36" departLane="best" from="D3D2" to="C3C4"/>
    <trip id="bike19" type="bike_bicycle" depart="181.93" departLane="best" departSpeed="max" from="D4D3" to="C3C2"/>
    <trip id="bike20" type="bike_bicycle" depart="191.51" departLane="best" from="D1C1" to="B1B0"/>
    <trip id="bike21" type="bike_bicycle" depart="201.08" departLane="best" from="B2B1" to="B3B2"/>
    <trip id="bike22" type="bike_bicycle" depart="210.66" departLane="best" departSpeed="max" from="A2B2" to="B3A3"/>
    <trip id="bike23" type="bike_bicycle" depart="220.24" departLane="best" departSpeed="max" from="A3B3" to="B3B2"/>
    <trip id="bike24" type="bike_bicycle" depart="229.81" departLane="best" departSpeed="max" from="C4C3" to="C1B1"/>
    <trip id="bike25" type="bike_bicycle" depart="239.39" departLane="best" departSpeed="max" from="C0C1" to="B2C2"/>
    <trip id="bike26" type="bike_bicycle" depart="248.96" departLane="best" from="B2C2" to="D3D4"/>
    <trip id="bike27" type="bike_bicycle" depart="258.54" departLane="best" departSpeed="max" from="D0D1" to="C3C4"/>
    <trip id="bike28" type="bike_bicycle" depart="268.11" departLane="best" from="B1B2" to="D1D2"/>
    <trip id="bike29" type="bike_bicycle" depart="277.69" departLane="best" departSpeed="max" from="B0B1" to="C1C0"/>
    <trip id="bike30" type="bike_bicycle" depart="287.26" departLane="best" departSpeed="max" from="E3D3" to="C3D3"/>
    <trip id="bike31" type="bike_bicycle" depart="296.84" departLane="best" from="C3B3" to="D1D0"/>
    <trip id="bike32" type="bike_bicycle" depart="306.41" departLane="best" departSpeed="max" from="D4D3" to="D2C2"/>
    <trip id="bike33" type="bike_bicycle" depart="315.99" departLane="best" from="B2B1" to="B1A1"/>
    <trip id="bike34" type="bike_bicycle" depart="325.57" departLane="best" departSpeed="max" from="B4B3" to="B3A3"/>
    <trip id="bike35" type="bike_bicycle" depart="335.14" departLane="best" from="B2B1" to="D3D4"/>
    <trip id="bike36" type="bike_bicycle" depart="344.72" departLane="best" departSpeed="max" from="E1D1" to="B3B4"/>
    <trip id="bike37" type="bike_bicycle" depart="354.29" departLane="best" departSpeed="max" from="D0D1" to="C1C0"/>
    <trip id="bike38" type="bike_bicycle" depart="363.87" departLane="best" departSpeed="max" from="E1D1" to="C2B2"/>
    <trip id="bike39" type="bike_bicycle" depart="373.44" departLane="best" from="B2C2" to="B3A3"/>
    <trip id="bike40" type="bike_bicycle" depart="383.02" departLane="best" from="C3B3" to="B3A3"/>
    <trip id="bike41" type="bike_bicycle" depart="392.59" departLane="best" from="C3D3" to="D3D2"/>
    <trip id="bike42" type="bike_bicycle" depart="402.17" departLane="best" from="C1B1" to="B2C2"/>
    <trip id="bike43" type="bike_bicycle" depart="411.74" departLane="best" departSpeed="max" from="E3D3" to="C2C3"/>
    <trip id="bike44" type="bike_bicycle" depart="421.32" departLane="best" departSpeed="max" from="A3B3" to="B1B0"/>
    <trip id="bike45" type="bike_bicycle" depart="430.90" departLane="best" departSpeed="max" from="A3B3" to="C3D3"/>
    <trip id="bike46" type="bike_bicycle" depart="440.47" departLane="best" from="D3C3" to="C1C2"/>
    <trip id="bike47" type="bike_bicycle" depart="450.05" departLane="best" departSpeed="max" from="A2B2" to="C1C0"/>
    <trip id="bike48" type="bike_bicycle" depart="459.62" departLane="best" departSpeed="max" from="E3D3" to="C2D2"/>
    <trip id="bike49" type="bike_bicycle" depart="469.20" departLane="best" departSpeed="max" from="E3D3" to="D2E2"/>
    <trip id="bike50" type="bike_bicycle" depart="478.77" departLane="best" departSpeed="max" from="A1B1" to="D1D2"/>
    <trip id="bike51" type="bike_bicycle" depart="488.35" departLane="best" departSpeed="max" from="D0D1" to="C2D2"/>
    <trip id="bike52" type="bike_bicycle" depart="497.92" departLane="best" from="B2C2" to="C3D3"/>
    <trip id="bike53" type="bike_bicycle" depart="507.50" departLane="best" departSpeed="max" from="A3B3" to="C1C2"/>
    <trip id="bike54" type="bike_bicycle" depart="517.07" departLane="best" from="C1D1" to="D3D4"/>
    <trip id="bike55" type="bike_bicycle" depart="526.65" departLane="best" departSpeed="max" from="E1D1" to="B3A3"/>
    <trip id="bike56" type="bike_bicycle" depart="536.23" departLane="best" from="C2C3" to="B2B1"/>
    <trip id="bike57" type="bike_bicycle" depart="545.80" departLane="best" departSpeed="max" from="E1D1" to="D2E2"/>
    <trip id="bike58" type="bike_bicycle" depart="555.38" departLane="best" from="B3C3" to="C3D3"/>
    <trip id="bike59" type="bike_bicycle" depart="564.95" departLane="best" departSpeed="max" from="C4C3" to="B2A2"/>
    <trip id="bike60" type="bike_bicycle" depart="574.53" departLane="best" from="D2D1" to="C2D2"/>
    <trip id="bike61" type="bike_bicycle" depart="584.10" departLane="best" from="D2D3" to="C2D2"/>
    <trip id="bike62" type="bike_bicycle" depart="593.68" departLane="best" departSpeed="max" from="A1B1" to="B3B4"/>
    <trip id="bike63" type="bike_bicycle" depart="603.25" departLane="best" departSpeed="max" from="A1B1" to="D3D4"/>
    <trip id="bike64" type="bike_bicycle" depart="612.83" departLane="best" departSpeed="max" from="E1D1" to="D2D3"/>
    <trip id="bike65" type="bike_bicycle" depart="622.40" departLane="best" from="B3C3" to="B1B0"/>
    <trip id="bike66" type="bike_bicycle" depart="631.98" departLane="best" departSpeed="max" from="E1D1" to="D3D4"/>
    <trip id="bike67" type="bike_bicycle" depart="641.56" departLane="best" departSpeed="max" from="A3B3" to="C2C1"/>
    <trip id="bike68" type="bike_bicycle" depart="651.13" departLane="best" departSpeed="max" from="A2B2" to="D1E1"/>
    <trip id="bike69" type="bike_bicycle" depart="660.71" departLane="best" from="D2D1" to="B2A2"/>
    <trip id="bike70" type="bike_bicycle" depart="670.28" departLane="best" from="C2B2" to="C3B3"/>
    <trip id="bike71" type="bike_bicycle" depart="679.86" departLane="best" from="B2C2" to="D2E2"/>
    <trip id="bike72" type="bike_bicycle" depart="689.43" departLane="best" from="C1C2" to="B2C2"/>
    <trip id="bike73" type="bike_bicycle" depart="699.01" departLane="best" from="C2D2" to="D1E1"/>
    <trip id="bike74" type="bike_bicycle" depart="708.58" departLane="best" from="B1C1" to="B3B4"/>
    <trip id="bike75" type="bike_bicycle" depart="718.16" departLane="best" departSpeed="max" from="E3D3" to="D1C1"/>
    <trip id="bike76" type="bike_bicycle" depart="727.74" departLane="best" from="C1D1" to="C2C3"/>
    <trip id="bike77" type="bike_bicycle" depart="737.31" departLane="best" departSpeed="max" from="A3B3" to="B2C2"/>
    <trip id="bike78" type="bike_bicycle" depart="746.89" departLane="best" departSpeed="max" from="B4B3" to="C3C4"/>
    <trip id="bike79" type="bike_bicycle" depart="756.46" departLane="best" from="B2B3" to="B2C2"/>
    <trip id="bike80" type="bike_bicycle" depart="766.04" departLane="best" departSpeed="max" from="A2B2" to="C3D3"/>
    <trip id="bike81" type="bike_bicycle" depart="775.61" departLane="best" from="B2B1" to="D3D2"/>
    <trip id="bike82" type="bike_bicycle" depart="785.19" departLane="best" departSpeed="max" from="D4D3" to="B1B0"/>
    <trip id="bike83" type="bike_bicycle" depart="794.76" departLane="best" from="B2B3" to="D1D0"/>
    <trip id="bike84" type="bike_bicycle" depart="804.34" departLane="best" from="B2B1" to="B2A2"/>
    <trip id="bike85" type="bike_bicycle" depart="813.91" departLane="best" departSpeed="max" from="E2D2" to="C3C2"/>
    <trip id="bike86" type="bike_bicycle" depart="823.49" departLane="best" from="C2B2" to="D2C2"/>
    <trip id="bike87" type="bike_bicycle" depart="833.07" departLane="best" from="D3C3" to="B2B3"/>
    <trip id="bike88" type="bike_bicycle" depart="842.64" departLane="best" departSpeed="max" from="A3B3" to="C1C2"/>
    <trip id="bike89" type="bike_bicycle" depart="852.22" departLane="best" from="C1C2" to="C2B2"/>
    <trip id="bike90" type="bike_bicycle" depart="861.79" departLane="best" from="D1D2" to="D1D0"/>
    <trip id="bike91" type="bike_bicycle" depart="871.37" departLane="best" departSpeed="max" from="E3D3" to="B1B2"/>
    <trip id="bike92" type="bike_bicycle" depart="880.94" departLane="best" from="C1B1" to="B3C3"/>
    <trip id="bike93" type="bike_bicycle" depart="890.52" departLane="best" departSpeed="max" from="D4D3" to="B3A3"/>
    <trip id="bike94" type="bike_bicycle" depart="900.09" departLane="best" from="B1C1" to="C1D1"/>
    <trip id="bike95" type="bike_bicycle" depart="909.67" departLane="best" from="C1C2" to="B3B2"/>
    <trip id="bike96" type="bike_bicycle" depart="919.24" departLane="best" from="B2B3" to="D3D4"/>
    <trip id="bike97" type="bike_bicycle" depart="928.82" departLane="best" from="C1D1" to="D2E2"/>
    <trip id="bike98" type="bike_bicycle" depart="938.40" departLane="best" from="C3B3" to="B1B0"/>
    <trip id="bike99" type="bike_bicycle" depart="947.97" departLane="best" departSpeed="max" from="E3D3" to="D2E2"/>
    <trip id="bike100" type="bike_bicycle" depart="957.55" departLane="best" departSpeed="max" from="E3D3" to="D3D4"/>
    <trip id="bike101" type="bike_bicycle" depart="967.12" departLane="best" departSpeed="max" from="D4D3" to="B2A2"/>
    <trip id="bike102" type="bike_bicycle" depart="976.70" departLane="best" from="C2C1" to="B2C2"/>
    <trip id="bike103" type="bike_bicycle" depart="986.27" departLane="best" from="C1B1" to="B1B0"/>
    <trip id="bike104" type="bike_bicycle" depart="995.85" departLane="best" departSpeed="max" from="C0C1" to="D3E3"/>
    <trip id="bike105" type="bike_bicycle" depart="1005.42" departLane="best" from="B2C2" to="D2C2"/>
    <trip id="bike106" type="bike_bicycle" depart="1015.00" departLane="best" from="C1D1" to="C1C2"/>
    <trip id="bike107" type="bike_bicycle" depart="1024.57" departLane="best" departSpeed="max" from="E2D2" to="D3E3"/>
    <trip id="bike108" type="bike_bicycle" depart="1034.15" departLane="best" from="C3B3" to="D1D2"/>
    <trip id="bike109" type="bike_bicycle" depart="1043.73" departLane="best" departSpeed="max" from="B0B1" to="B3B4"/>
    <trip id="bike110" type="bike_bicycle" depart="1053.30" departLane="best" departSpeed="max" from="E3D3" to="C3C2"/>
    <trip id="bike111" type="bike_bicycle" depart="1062.88" departLane="best" from="C3B3" to="D1E1"/>
    <trip id="bike112" type="bike_bicycle" depart="1072.45" departLane="best" departSpeed="max" from="A2B2" to="C3C4"/>
    <trip id="bike113" type="bike_bicycle" depart="1082.03" departLane="best" from="C2C3" to="D2E2"/>
    <trip id="bike114" type="bike_bicycle" depart="1091.60" departLane="best" departSpeed="max" from="B0B1" to="D3E3"/>
    <trip id="bike115" type="bike_bicycle" depart="1101.18" departLane="best" departSpeed="max" from="A2B2" to="B2B1"/>
    <trip id="bike116" type="bike_bicycle" depart="1110.75" departLane="best" from="C3D3" to="D1D0"/>
    <trip id="bike117" type="bike_bicycle" depart="1120.33" departLane="best" from="B2B3" to="B1C1"/>
    <trip id="bike118" type="bike_bicycle" depart="1129.90" departLane="best" departSpeed="max" from="E1D1" to="B3A3"/>
    <trip id="bike119" type="bike_bicycle" depart="1139.48" departLane="best" from="C3D3" to="C3C4"/>
    <trip id="bike120" type="bike_bicycle" depart="1149.06" departLane="best" from="C1C2" to="C3C4"/>
    <trip id="bike121" type="bike_bicycle" depart="1158.63" departLane="best" from="C2D2" to="D3D4"/>
    <trip id="bike122" type="bike_bicycle" depart="1168.21" departLane="best" from="B1C1" to="D1D2"/>
    <trip id="bike123" type="bike_bicycle" depart="1177.78" departLane="best" from="B2B3" to="C1C0"/>
    <trip id="bike124" type="bike_bicycle" depart="1187.36" departLane="best" departSpeed="max" from="D0D1" to="B3B4"/>
    <trip id="bike125" type="bike_bicycle" depart="1196.93" departLane="best" departSpeed="max" from="B4B3" to="D1E1"/>
    <trip id="bike126" type="bike_bicycle" depart="1206.51" departLane="best" departSpeed="max" from="A2B2" to="C1D1"/>
    <trip id="bike127" type="bike_bicycle" depart="1216.08" departLane="best" departSpeed="max" from="E3D3" to="D3E3"/>
    <trip id="bike128" type="bike_bicycle" depart="1225.66" departLane="best" departSpeed="max" from="A2B2" to="B2C2"/>
    <trip id="bike129" type="bike_bicycle" depart="1235.23" departLane="best" from="B2C2" to="D3D4"/>
    <trip id="bike130" type="bike_bicycle" depart="1244.81" departLane="best" departSpeed="max" from="E1D1" to="D3C3"/>
    <trip id="bike131" type="bike_bicycle" depart="1254.39" departLane="best" departSpeed="max" from="C0C1" to="B2A2"/>
    <trip id="bike132" type="bike_bicycle" depart="1263.96" departLane="best" departSpeed="max" from="D4D3" to="D1D0"/>
    <trip id="bike133" type="bike_bicycle" depart="1273.54" departLane="best" departSpeed="max" from="C4C3" to="D3E3"/>
    <trip id="bike134" type="bike_bicycle" depart="1283.11" departLane="best" departSpeed="max" from="D0D1" to="B1A1"/>
    <trip id="bike135" type="bike_bicycle" depart="1292.69" departLane="best" from="D3D2" to="B3B4"/>
    <trip id="bike136" type="bike_bicycle" depart="1302.26" departLane="best" departSpeed="max" from="D0D1" to="D3D4"/>
    <trip id="bike137" type="bike_bicycle" depart="1311.84" departLane="best" departSpeed="max" from="B0B1" to="B1C1"/>
    <trip id="bike138" type="bike_bicycle" depart="1321.41" departLane="best" departSpeed="max" from="A3B3" to="C3B3"/>
    <trip id="bike139" type="bike_bicycle" depart="1330.99" departLane="best" from="B3B2" to="C3C4"/>
    <trip id="bike140" type="bike_bicycle" depart="1340.56" departLane="best" from="D1D2" to="B2B3"/>
    <trip id="bike141" type="bike_bicycle" depart="1350.14" departLane="best" departSpeed="max" from="C4C3" to="B3A3"/>
    <trip id="bike142" type="bike_bicycle" depart="1359.72" departLane="best" from="C2C1" to="D3D2"/>
    <trip id="bike143" type="bike_bicycle" depart="1369.29" departLane="best" departSpeed="max" from="D4D3" to="B1B2"/>
    <trip id="bike144" type="bike_bicycle" depart="1378.87" departLane="best" from="C1C2" to="B3B2"/>
    <trip id="bike145" type="bike_bicycle" depart="1388.44" departLane="best" departSpeed="max" from="A1B1" to="D2C2"/>
    <trip id="bike146" type="bike_bicycle" depart="1398.02" departLane="best" departSpeed="max" from="C4C3" to="B3A3"/>
    <trip id="bike147" type="bike_bicycle" depart="1407.59" departLane="best" from="D2C2" to="C3B3"/>
    <trip id="bike148" type="bike_bicycle" depart="1417.17" departLane="best" from="C1C2" to="B1A1"/>
    <trip id="bike149" type="bike_bicycle" depart="1426.74" departLane="best" departSpeed="max" from="A2B2" to="D3C3"/>
    <trip id="bike150" type="bike_bicycle" depart="1436.32" departLane="best" departSpeed="max" from="E1D1" to="C3B3"/>
    <trip id="bike151" type="bike_bicycle" depart="1445.89" departLane="best" departSpeed="max" from="D4D3" to="C3C2"/>
    <trip id="bike152" type="bike_bicycle" depart="1455.47" departLane="best" departSpeed="max" from="B0B1" to="B2A2"/>
    <trip id="bike153" type="bike_bicycle" depart="1465.05" departLane="best" from="B3C3" to="D3D2"/>
    <trip id="bike154" type="bike_bicycle" depart="1474.62" departLane="best" from="D3C3" to="D2E2"/>
    <trip id="bike155" type="bike_bicycle" depart="1484.20" departLane="best" departSpeed="max" from="E1D1" to="B2C2"/>
    <trip id="bike156" type="bike_bicycle" depart="1493.77" departLane="best" from="B2B3" to="B1B2"/>
    <trip id="bike157" type="bike_bicycle" depart="1503.35" departLane="best" from="D2D3" to="D3C3"/>
    <trip id="bike158" type="bike_bicycle" depart="1512.92" departLane="best" from="C1B1" to="C3C4"/>
    <trip id="bike159" type="bike_bicycle" depart="1522.50" departLane="best" departSpeed="max" from="B0B1" to="D3D4"/>
    <trip id="bike160" type="bike_bicycle" depart="1532.07" departLane="best" departSpeed="max" from="D4D3" to="D3E3"/>
    <trip id="bike161" type="bike_bicycle" depart="1541.65" departLane="best" from="D3C3" to="D3C3"/>
    <trip id="bike162" type="bike_bicycle" depart="1551.22" departLane="best" departSpeed="max" from="A1B1" to="D1E1"/>
    <trip id="bike163" type="bike_bicycle" depart="1560.80" departLane="best" departSpeed="max" from="B4B3" to="D3D4"/>
    <trip id="bike164" type="bike_bicycle" depart="1570.38" departLane="best" from="D3C3" to="D2E2"/>
    <trip id="bike165" type="bike_bicycle" depart="1579.95" departLane="best" from="D3C3" to="B3A3"/>
    <trip id="bike166" type="bike_bicycle" depart="1589.53" departLane="best" from="D2D3" to="B1C1"/>
    <trip id="bike167" type="bike_bicycle" depart="1599.10" departLane="best" departSpeed="max" from="D4D3" to="D2E2"/>
    <trip id="bike168" type="bike_bicycle" depart="1608.68" departLane="best" from="B2B1" to="D2D3"/>
    <trip id="bike169" type="bike_bicycle" depart="1618.25" departLane="best" from="C2B2" to="B3B4"/>
    <trip id="bike170" type="bike_bicycle" depart="1627.83" departLane="best" from="D3C3" to="B2C2"/>
    <trip id="bike171" type="bike_bicycle" depart="1637.40" departLane="best" departSpeed="max" from="A1B1" to="B2B3"/>
    <trip id="bike172" type="bike_bicycle" depart="1646.98" departLane="best" departSpeed="max" from="B4B3" to="D2E2"/>
    <trip id="bike173" type="bike_bicycle" depart="1656.55" departLane="best" departSpeed="max" from="E3D3" to="B3B2"/>
    <trip id="bike174" type="bike_bicycle" depart="1666.13" departLane="best" departSpeed="max" from="C4C3" to="C1C0"/>
    <trip id="bike175" type="bike_bicycle" depart="1675.71" departLane="best" departSpeed="max" from="E3D3" to="C2D2"/>
    <trip id="bike176" type="bike_bicycle" depart="1685.28" departLane="best" departSpeed="max" from="E2D2" to="B1C1"/>
    <trip id="bike177" type="bike_bicycle" depart="1694.86" departLane="best" departSpeed="max" from="E3D3" to="B2B1"/>
    <trip id="bike178" type="bike_bicycle" depart="1704.43" departLane="best" departSpeed="max" from="E3D3" to="B3A3"/>
    <trip id="bike179" type="bike_bicycle" depart="1714.01" departLane="best" departSpeed="max" from="A3B3" to="C1C2"/>
    <trip id="bike180" type="bike_bicycle" depart="1723.58" departLane="best" from="D1D2" to="B3B4"/>
    <trip id="bike181" type="bike_bicycle" depart="1733.16" departLane="best" departSpeed="max" from="C4C3" to="C2C3"/>
    <trip id="bike182" type="bike_bicycle" depart="1742.73" departLane="best" departSpeed="max" from="C0C1" to="C3C2"/>
    <trip id="bike183" type="bike_bicycle" depart="1752.31" departLane="best" from="B2C2" to="D1D2"/>
    <trip id="bike184" type="bike_bicycle" depart="1761.88" departLane="best" departSpeed="max" from="A1B1" to="D3D4"/>
    <trip id="bike185" type="bike_bicycle" depart="1771.46" departLane="best" from="C2D2" to="D1D2"/>
    <trip id="bike186" type="bike_bicycle" depart="1781.04" departLane="best" from="D2C2" to="D1D0"/>
    <trip id="bike187" type="bike_bicycle" depart="1790.61" departLane="best" departSpeed="max" from="C0C1" to="B1B0"/>
</routes>
