<?xml version="1.0" encoding="UTF-8"?>

<!-- generated on 05/27/20 20:29:12 by Eclipse SUMO duarouter Version 1.6.0
<configuration xmlns:xsi="http://www.w3.org/2001/XMLSchema-instance" xsi:noNamespaceSchemaLocation="http://sumo.dlr.de/xsd/duarouterConfiguration.xsd">

    <input>
        <net-file value="optimal.net.xml"/>
        <route-files value="optimal.bicycle.trips.xml"/>
    </input>

    <output>
        <output-file value="optimal.bicycle.trips.xml.tmp"/>
        <write-trips value="true"/>
    </output>

    <time>
        <begin value="0"/>
        <end value="1800.0"/>
    </time>

    <report>
        <no-warnings value="true"/>
        <ignore-errors value="true"/>
        <no-step-log value="true"/>
    </report>

</configuration>
-->

<routes xmlns:xsi="http://www.w3.org/2001/XMLSchema-instance" xsi:noNamespaceSchemaLocation="http://sumo.dlr.de/xsd/routes_file.xsd">
    <vType id="bike_bicycle" vClass="bicycle"/>
    <trip id="bike0" type="bike_bicycle" depart="0.00" departLane="best" departSpeed="max" from="C4C3" to="B1A1"/>
    <trip id="bike1" type="bike_bicycle" depart="6.00" departLane="best" from="B3B2" to="B2C2"/>
    <trip id="bike2" type="bike_bicycle" depart="12.00" departLane="best" from="D2C2" to="D1D0"/>
    <trip id="bike3" type="bike_bicycle" depart="18.00" departLane="best" departSpeed="max" from="E1D1" to="B1B2"/>
    <trip id="bike4" type="bike_bicycle" depart="24.00" departLane="best" from="C1C2" to="B1A1"/>
    <trip id="bike5" type="bike_bicycle" depart="30.00" departLane="best" from="B2B1" to="C2C3"/>
    <trip id="bike6" type="bike_bicycle" depart="36.00" departLane="best" departSpeed="max" from="A1B1" to="B2B3"/>
    <trip id="bike7" type="bike_bicycle" depart="42.00" departLane="best" departSpeed="max" from="D0D1" to="C3B3"/>
    <trip id="bike8" type="bike_bicycle" depart="48.00" departLane="best" from="B2B1" to="C3C4"/>
    <trip id="bike9" type="bike_bicycle" depart="54.00" departLane="best" from="D3C3" to="B1A1"/>
    <trip id="bike10" type="bike_bicycle" depart="60.00" departLane="best" from="D3C3" to="D1D0"/>
    <trip id="bike11" type="bike_bicycle" depart="66.00" departLane="best" departSpeed="max" from="B4B3" to="B2A2"/>
    <trip id="bike12" type="bike_bicycle" depart="72.00" departLane="best" departSpeed="max" from="E2D2" to="B3C3"/>
    <trip id="bike13" type="bike_bicycle" depart="78.00" departLane="best" departSpeed="max" from="A3B3" to="B1B2"/>
    <trip id="bike14" type="bike_bicycle" depart="84.00" departLane="best" departSpeed="max" from="D4D3" to="C3C4"/>
    <trip id="bike15" type="bike_bicycle" depart="90.00" departLane="best" from="D3C3" to="D1E1"/>
    <trip id="bike16" type="bike_bicycle" depart="96.00" departLane="best" from="C2D2" to="D3E3"/>
    <trip id="bike17" type="bike_bicycle" depart="102.00" departLane="best" departSpeed="max" from="C0C1" to="C3B3"/>
    <trip id="bike18" type="bike_bicycle" depart="108.00" departLane="best" from="D3D2" to="C3C4"/>
    <trip id="bike19" type="bike_bicycle" depart="114.00" departLane="best" departSpeed="max" from="D4D3" to="C3C2"/>
    <trip id="bike20" type="bike_bicycle" depart="120.00" departLane="best" from="D1C1" to="B1B0"/>
    <trip id="bike21" type="bike_bicycle" depart="126.00" departLane="best" from="B2B1" to="B3B2"/>
    <trip id="bike22" type="bike_bicycle" depart="132.00" departLane="best" departSpeed="max" from="A2B2" to="B3A3"/>
    <trip id="bike23" type="bike_bicycle" depart="138.00" departLane="best" departSpeed="max" from="A3B3" to="B3B2"/>
    <trip id="bike24" type="bike_bicycle" depart="144.00" departLane="best" departSpeed="max" from="C4C3" to="C1B1"/>
    <trip id="bike25" type="bike_bicycle" depart="150.00" departLane="best" departSpeed="max" from="C0C1" to="B2C2"/>
    <trip id="bike26" type="bike_bicycle" depart="156.00" departLane="best" from="B2C2" to="D3D4"/>
    <trip id="bike27" type="bike_bicycle" depart="162.00" departLane="best" departSpeed="max" from="D0D1" to="C3C4"/>
    <trip id="bike28" type="bike_bicycle" depart="168.00" departLane="best" from="B1B2" to="D1D2"/>
    <trip id="bike29" type="bike_bicycle" depart="174.00" departLane="best" departSpeed="max" from="B0B1" to="C1C0"/>
    <trip id="bike30" type="bike_bicycle" depart="180.00" departLane="best" departSpeed="max" from="E3D3" to="C3D3"/>
    <trip id="bike31" type="bike_bicycle" depart="186.00" departLane="best" from="C3B3" to="D1D0"/>
    <trip id="bike32" type="bike_bicycle" depart="192.00" departLane="best" departSpeed="max" from="D4D3" to="D2C2"/>
    <trip id="bike33" type="bike_bicycle" depart="198.00" departLane="best" from="B2B1" to="B1A1"/>
    <trip id="bike34" type="bike_bicycle" depart="204.00" departLane="best" departSpeed="max" from="B4B3" to="B3A3"/>
    <trip id="bike35" type="bike_bicycle" depart="210.00" departLane="best" from="B2B1" to="D3D4"/>
    <trip id="bike36" type="bike_bicycle" depart="216.00" departLane="best" departSpeed="max" from="E1D1" to="B3B4"/>
    <trip id="bike37" type="bike_bicycle" depart="222.00" departLane="best" departSpeed="max" from="D0D1" to="C1C0"/>
    <trip id="bike38" type="bike_bicycle" depart="228.00" departLane="best" departSpeed="max" from="E1D1" to="C2B2"/>
    <trip id="bike39" type="bike_bicycle" depart="234.00" departLane="best" from="B2C2" to="B3A3"/>
    <trip id="bike40" type="bike_bicycle" depart="240.00" departLane="best" from="C3B3" to="B3A3"/>
    <trip id="bike41" type="bike_bicycle" depart="246.00" departLane="best" from="C3D3" to="D3D2"/>
    <trip id="bike42" type="bike_bicycle" depart="252.00" departLane="best" from="C1B1" to="B2C2"/>
    <trip id="bike43" type="bike_bicycle" depart="258.00" departLane="best" departSpeed="max" from="E3D3" to="C2C3"/>
    <trip id="bike44" type="bike_bicycle" depart="264.00" departLane="best" departSpeed="max" from="A3B3" to="B1B0"/>
    <trip id="bike45" type="bike_bicycle" depart="270.00" departLane="best" departSpeed="max" from="A3B3" to="C3D3"/>
    <trip id="bike46" type="bike_bicycle" depart="276.00" departLane="best" from="D3C3" to="C1C2"/>
    <trip id="bike47" type="bike_bicycle" depart="282.00" departLane="best" departSpeed="max" from="A2B2" to="C1C0"/>
    <trip id="bike48" type="bike_bicycle" depart="288.00" departLane="best" departSpeed="max" from="E3D3" to="C2D2"/>
    <trip id="bike49" type="bike_bicycle" depart="294.00" departLane="best" departSpeed="max" from="E3D3" to="D2E2"/>
    <trip id="bike50" type="bike_bicycle" depart="300.00" departLane="best" departSpeed="max" from="A1B1" to="D1D2"/>
    <trip id="bike51" type="bike_bicycle" depart="306.00" departLane="best" departSpeed="max" from="D0D1" to="C2D2"/>
    <trip id="bike52" type="bike_bicycle" depart="312.00" departLane="best" from="B2C2" to="C3D3"/>
    <trip id="bike53" type="bike_bicycle" depart="318.00" departLane="best" departSpeed="max" from="A3B3" to="C1C2"/>
    <trip id="bike54" type="bike_bicycle" depart="324.00" departLane="best" from="C1D1" to="D3D4"/>
    <trip id="bike55" type="bike_bicycle" depart="330.00" departLane="best" departSpeed="max" from="E1D1" to="B3A3"/>
    <trip id="bike56" type="bike_bicycle" depart="336.00" departLane="best" from="C2C3" to="B2B1"/>
    <trip id="bike57" type="bike_bicycle" depart="342.00" departLane="best" departSpeed="max" from="E1D1" to="D2E2"/>
    <trip id="bike58" type="bike_bicycle" depart="348.00" departLane="best" from="B3C3" to="C3D3"/>
    <trip id="bike59" type="bike_bicycle" depart="354.00" departLane="best" departSpeed="max" from="C4C3" to="B2A2"/>
    <trip id="bike60" type="bike_bicycle" depart="360.00" departLane="best" from="D2D1" to="C2D2"/>
    <trip id="bike61" type="bike_bicycle" depart="366.00" departLane="best" from="D2D3" to="C2D2"/>
    <trip id="bike62" type="bike_bicycle" depart="372.00" departLane="best" departSpeed="max" from="A1B1" to="B3B4"/>
    <trip id="bike63" type="bike_bicycle" depart="378.00" departLane="best" departSpeed="max" from="A1B1" to="D3D4"/>
    <trip id="bike64" type="bike_bicycle" depart="384.00" departLane="best" departSpeed="max" from="E1D1" to="D2D3"/>
    <trip id="bike65" type="bike_bicycle" depart="390.00" departLane="best" from="B3C3" to="B1B0"/>
    <trip id="bike66" type="bike_bicycle" depart="396.00" departLane="best" departSpeed="max" from="E1D1" to="D3D4"/>
    <trip id="bike67" type="bike_bicycle" depart="402.00" departLane="best" departSpeed="max" from="A3B3" to="C2C1"/>
    <trip id="bike68" type="bike_bicycle" depart="408.00" departLane="best" departSpeed="max" from="A2B2" to="D1E1"/>
    <trip id="bike69" type="bike_bicycle" depart="414.00" departLane="best" from="D2D1" to="B2A2"/>
    <trip id="bike70" type="bike_bicycle" depart="420.00" departLane="best" from="C2B2" to="C3B3"/>
    <trip id="bike71" type="bike_bicycle" depart="426.00" departLane="best" from="B2C2" to="D2E2"/>
    <trip id="bike72" type="bike_bicycle" depart="432.00" departLane="best" from="C1C2" to="B2C2"/>
    <trip id="bike73" type="bike_bicycle" depart="438.00" departLane="best" from="C2D2" to="D1E1"/>
    <trip id="bike74" type="bike_bicycle" depart="444.00" departLane="best" from="B1C1" to="B3B4"/>
    <trip id="bike75" type="bike_bicycle" depart="450.00" departLane="best" departSpeed="max" from="E3D3" to="D1C1"/>
    <trip id="bike76" type="bike_bicycle" depart="456.00" departLane="best" from="C1D1" to="C2C3"/>
    <trip id="bike77" type="bike_bicycle" depart="462.00" departLane="best" departSpeed="max" from="A3B3" to="B2C2"/>
    <trip id="bike78" type="bike_bicycle" depart="468.00" departLane="best" departSpeed="max" from="B4B3" to="C3C4"/>
    <trip id="bike79" type="bike_bicycle" depart="474.00" departLane="best" from="B2B3" to="B2C2"/>
    <trip id="bike80" type="bike_bicycle" depart="480.00" departLane="best" departSpeed="max" from="A2B2" to="C3D3"/>
    <trip id="bike81" type="bike_bicycle" depart="486.00" departLane="best" from="B2B1" to="D3D2"/>
    <trip id="bike82" type="bike_bicycle" depart="492.00" departLane="best" departSpeed="max" from="D4D3" to="B1B0"/>
    <trip id="bike83" type="bike_bicycle" depart="498.00" departLane="best" from="B2B3" to="D1D0"/>
    <trip id="bike84" type="bike_bicycle" depart="504.00" departLane="best" from="B2B1" to="B2A2"/>
    <trip id="bike85" type="bike_bicycle" depart="510.00" departLane="best" departSpeed="max" from="E2D2" to="C3C2"/>
    <trip id="bike86" type="bike_bicycle" depart="516.00" departLane="best" from="C2B2" to="D2C2"/>
    <trip id="bike87" type="bike_bicycle" depart="522.00" departLane="best" from="D3C3" to="B2B3"/>
    <trip id="bike88" type="bike_bicycle" depart="528.00" departLane="best" departSpeed="max" from="A3B3" to="C1C2"/>
    <trip id="bike89" type="bike_bicycle" depart="534.00" departLane="best" from="C1C2" to="C2B2"/>
    <trip id="bike90" type="bike_bicycle" depart="540.00" departLane="best" from="D1D2" to="D1D0"/>
    <trip id="bike91" type="bike_bicycle" depart="546.00" departLane="best" departSpeed="max" from="E3D3" to="B1B2"/>
    <trip id="bike92" type="bike_bicycle" depart="552.00" departLane="best" from="C1B1" to="B3C3"/>
    <trip id="bike93" type="bike_bicycle" depart="558.00" departLane="best" departSpeed="max" from="D4D3" to="B3A3"/>
    <trip id="bike94" type="bike_bicycle" depart="564.00" departLane="best" from="B1C1" to="C1D1"/>
    <trip id="bike95" type="bike_bicycle" depart="570.00" departLane="best" from="C1C2" to="B3B2"/>
    <trip id="bike96" type="bike_bicycle" depart="576.00" departLane="best" from="B2B3" to="D3D4"/>
    <trip id="bike97" type="bike_bicycle" depart="582.00" departLane="best" from="C1D1" to="D2E2"/>
    <trip id="bike98" type="bike_bicycle" depart="588.00" departLane="best" from="C3B3" to="B1B0"/>
    <trip id="bike99" type="bike_bicycle" depart="594.00" departLane="best" departSpeed="max" from="E3D3" to="D2E2"/>
    <trip id="bike100" type="bike_bicycle" depart="600.00" departLane="best" departSpeed="max" from="E3D3" to="D3D4"/>
    <trip id="bike101" type="bike_bicycle" depart="606.00" departLane="best" departSpeed="max" from="D4D3" to="B2A2"/>
    <trip id="bike102" type="bike_bicycle" depart="612.00" departLane="best" from="C2C1" to="B2C2"/>
    <trip id="bike103" type="bike_bicycle" depart="618.00" departLane="best" from="C1B1" to="B1B0"/>
    <trip id="bike104" type="bike_bicycle" depart="624.00" departLane="best" departSpeed="max" from="C0C1" to="D3E3"/>
    <trip id="bike105" type="bike_bicycle" depart="630.00" departLane="best" from="B2C2" to="D2C2"/>
    <trip id="bike106" type="bike_bicycle" depart="636.00" departLane="best" from="C1D1" to="C1C2"/>
    <trip id="bike107" type="bike_bicycle" depart="642.00" departLane="best" departSpeed="max" from="E2D2" to="D3E3"/>
    <trip id="bike108" type="bike_bicycle" depart="648.00" departLane="best" from="C3B3" to="D1D2"/>
    <trip id="bike109" type="bike_bicycle" depart="654.00" departLane="best" departSpeed="max" from="B0B1" to="B3B4"/>
    <trip id="bike110" type="bike_bicycle" depart="660.00" departLane="best" departSpeed="max" from="E3D3" to="C3C2"/>
    <trip id="bike111" type="bike_bicycle" depart="666.00" departLane="best" from="C3B3" to="D1E1"/>
    <trip id="bike112" type="bike_bicycle" depart="672.00" departLane="best" departSpeed="max" from="A2B2" to="C3C4"/>
    <trip id="bike113" type="bike_bicycle" depart="678.00" departLane="best" from="C2C3" to="D2E2"/>
    <trip id="bike114" type="bike_bicycle" depart="684.00" departLane="best" departSpeed="max" from="B0B1" to="D3E3"/>
    <trip id="bike115" type="bike_bicycle" depart="690.00" departLane="best" departSpeed="max" from="A2B2" to="B2B1"/>
    <trip id="bike116" type="bike_bicycle" depart="696.00" departLane="best" from="C3D3" to="D1D0"/>
    <trip id="bike117" type="bike_bicycle" depart="702.00" departLane="best" from="B2B3" to="B1C1"/>
    <trip id="bike118" type="bike_bicycle" depart="708.00" departLane="best" departSpeed="max" from="E1D1" to="B3A3"/>
    <trip id="bike119" type="bike_bicycle" depart="714.00" departLane="best" from="C3D3" to="C3C4"/>
    <trip id="bike120" type="bike_bicycle" depart="720.00" departLane="best" from="C1C2" to="C3C4"/>
    <trip id="bike121" type="bike_bicycle" depart="726.00" departLane="best" from="C2D2" to="D3D4"/>
    <trip id="bike122" type="bike_bicycle" depart="732.00" departLane="best" from="B1C1" to="D1D2"/>
    <trip id="bike123" type="bike_bicycle" depart="738.00" departLane="best" from="B2B3" to="C1C0"/>
    <trip id="bike124" type="bike_bicycle" depart="744.00" departLane="best" departSpeed="max" from="D0D1" to="B3B4"/>
    <trip id="bike125" type="bike_bicycle" depart="750.00" departLane="best" departSpeed="max" from="B4B3" to="D1E1"/>
    <trip id="bike126" type="bike_bicycle" depart="756.00" departLane="best" departSpeed="max" from="A2B2" to="C1D1"/>
    <trip id="bike127" type="bike_bicycle" depart="762.00" departLane="best" departSpeed="max" from="E3D3" to="D3E3"/>
    <trip id="bike128" type="bike_bicycle" depart="768.00" departLane="best" departSpeed="max" from="A2B2" to="B2C2"/>
    <trip id="bike129" type="bike_bicycle" depart="774.00" departLane="best" from="B2C2" to="D3D4"/>
    <trip id="bike130" type="bike_bicycle" depart="780.00" departLane="best" departSpeed="max" from="E1D1" to="D3C3"/>
    <trip id="bike131" type="bike_bicycle" depart="786.00" departLane="best" departSpeed="max" from="C0C1" to="B2A2"/>
    <trip id="bike132" type="bike_bicycle" depart="792.00" departLane="best" departSpeed="max" from="D4D3" to="D1D0"/>
    <trip id="bike133" type="bike_bicycle" depart="798.00" departLane="best" departSpeed="max" from="C4C3" to="D3E3"/>
    <trip id="bike134" type="bike_bicycle" depart="804.00" departLane="best" departSpeed="max" from="D0D1" to="B1A1"/>
    <trip id="bike135" type="bike_bicycle" depart="810.00" departLane="best" from="D3D2" to="B3B4"/>
    <trip id="bike136" type="bike_bicycle" depart="816.00" departLane="best" departSpeed="max" from="D0D1" to="D3D4"/>
    <trip id="bike137" type="bike_bicycle" depart="822.00" departLane="best" departSpeed="max" from="B0B1" to="B1C1"/>
    <trip id="bike138" type="bike_bicycle" depart="828.00" departLane="best" departSpeed="max" from="A3B3" to="C3B3"/>
    <trip id="bike139" type="bike_bicycle" depart="834.00" departLane="best" from="B3B2" to="C3C4"/>
    <trip id="bike140" type="bike_bicycle" depart="840.00" departLane="best" from="D1D2" to="B2B3"/>
    <trip id="bike141" type="bike_bicycle" depart="846.00" departLane="best" departSpeed="max" from="C4C3" to="B3A3"/>
    <trip id="bike142" type="bike_bicycle" depart="852.00" departLane="best" from="C2C1" to="D3D2"/>
    <trip id="bike143" type="bike_bicycle" depart="858.00" departLane="best" departSpeed="max" from="D4D3" to="B1B2"/>
    <trip id="bike144" type="bike_bicycle" depart="864.00" departLane="best" from="C1C2" to="B3B2"/>
    <trip id="bike145" type="bike_bicycle" depart="870.00" departLane="best" departSpeed="max" from="A1B1" to="D2C2"/>
    <trip id="bike146" type="bike_bicycle" depart="876.00" departLane="best" departSpeed="max" from="C4C3" to="B3A3"/>
    <trip id="bike147" type="bike_bicycle" depart="882.00" departLane="best" from="D2C2" to="C3B3"/>
    <trip id="bike148" type="bike_bicycle" depart="888.00" departLane="best" from="C1C2" to="B1A1"/>
    <trip id="bike149" type="bike_bicycle" depart="894.00" departLane="best" departSpeed="max" from="A2B2" to="D3C3"/>
    <trip id="bike150" type="bike_bicycle" depart="900.00" departLane="best" departSpeed="max" from="E1D1" to="C3B3"/>
    <trip id="bike151" type="bike_bicycle" depart="906.00" departLane="best" departSpeed="max" from="D4D3" to="C3C2"/>
    <trip id="bike152" type="bike_bicycle" depart="912.00" departLane="best" departSpeed="max" from="B0B1" to="B2A2"/>
    <trip id="bike153" type="bike_bicycle" depart="918.00" departLane="best" from="B3C3" to="D3D2"/>
    <trip id="bike154" type="bike_bicycle" depart="924.00" departLane="best" from="D3C3" to="D2E2"/>
    <trip id="bike155" type="bike_bicycle" depart="930.00" departLane="best" departSpeed="max" from="E1D1" to="B2C2"/>
    <trip id="bike156" type="bike_bicycle" depart="936.00" departLane="best" from="B2B3" to="B1B2"/>
    <trip id="bike157" type="bike_bicycle" depart="942.00" departLane="best" from="D2D3" to="D3C3"/>
    <trip id="bike158" type="bike_bicycle" depart="948.00" departLane="best" from="C1B1" to="C3C4"/>
    <trip id="bike159" type="bike_bicycle" depart="954.00" departLane="best" departSpeed="max" from="B0B1" to="D3D4"/>
    <trip id="bike160" type="bike_bicycle" depart="960.00" departLane="best" departSpeed="max" from="D4D3" to="D3E3"/>
    <trip id="bike161" type="bike_bicycle" depart="966.00" departLane="best" from="D3C3" to="D3C3"/>
    <trip id="bike162" type="bike_bicycle" depart="972.00" departLane="best" departSpeed="max" from="A1B1" to="D1E1"/>
    <trip id="bike163" type="bike_bicycle" depart="978.00" departLane="best" departSpeed="max" from="B4B3" to="D3D4"/>
    <trip id="bike164" type="bike_bicycle" depart="984.00" departLane="best" from="D3C3" to="D2E2"/>
    <trip id="bike165" type="bike_bicycle" depart="990.00" departLane="best" from="D3C3" to="B3A3"/>
    <trip id="bike166" type="bike_bicycle" depart="996.00" departLane="best" from="D2D3" to="B1C1"/>
    <trip id="bike167" type="bike_bicycle" depart="1002.00" departLane="best" departSpeed="max" from="D4D3" to="D2E2"/>
    <trip id="bike168" type="bike_bicycle" depart="1008.00" departLane="best" from="B2B1" to="D2D3"/>
    <trip id="bike169" type="bike_bicycle" depart="1014.00" departLane="best" from="C2B2" to="B3B4"/>
    <trip id="bike170" type="bike_bicycle" depart="1020.00" departLane="best" from="D3C3" to="B2C2"/>
    <trip id="bike171" type="bike_bicycle" depart="1026.00" departLane="best" departSpeed="max" from="A1B1" to="B2B3"/>
    <trip id="bike172" type="bike_bicycle" depart="1032.00" departLane="best" departSpeed="max" from="B4B3" to="D2E2"/>
    <trip id="bike173" type="bike_bicycle" depart="1038.00" departLane="best" departSpeed="max" from="E3D3" to="B3B2"/>
    <trip id="bike174" type="bike_bicycle" depart="1044.00" departLane="best" departSpeed="max" from="C4C3" to="C1C0"/>
    <trip id="bike175" type="bike_bicycle" depart="1050.00" departLane="best" departSpeed="max" from="E3D3" to="C2D2"/>
    <trip id="bike176" type="bike_bicycle" depart="1056.00" departLane="best" departSpeed="max" from="E2D2" to="B1C1"/>
    <trip id="bike177" type="bike_bicycle" depart="1062.00" departLane="best" departSpeed="max" from="E3D3" to="B2B1"/>
    <trip id="bike178" type="bike_bicycle" depart="1068.00" departLane="best" departSpeed="max" from="E3D3" to="B3A3"/>
    <trip id="bike179" type="bike_bicycle" depart="1074.00" departLane="best" departSpeed="max" from="A3B3" to="C1C2"/>
    <trip id="bike180" type="bike_bicycle" depart="1080.00" departLane="best" from="D1D2" to="B3B4"/>
    <trip id="bike181" type="bike_bicycle" depart="1086.00" departLane="best" departSpeed="max" from="C4C3" to="C2C3"/>
    <trip id="bike182" type="bike_bicycle" depart="1092.00" departLane="best" departSpeed="max" from="C0C1" to="C3C2"/>
    <trip id="bike183" type="bike_bicycle" depart="1098.00" departLane="best" from="B2C2" to="D1D2"/>
    <trip id="bike184" type="bike_bicycle" depart="1104.00" departLane="best" departSpeed="max" from="A1B1" to="D3D4"/>
    <trip id="bike185" type="bike_bicycle" depart="1110.00" departLane="best" from="C2D2" to="D1D2"/>
    <trip id="bike186" type="bike_bicycle" depart="1116.00" departLane="best" from="D2C2" to="D1D0"/>
    <trip id="bike187" type="bike_bicycle" depart="1122.00" departLane="best" departSpeed="max" from="C0C1" to="B1B0"/>
    <trip id="bike188" type="bike_bicycle" depart="1128.00" departLane="best" departSpeed="max" from="D0D1" to="B3B4"/>
    <trip id="bike189" type="bike_bicycle" depart="1134.00" departLane="best" departSpeed="max" from="B4B3" to="D2E2"/>
    <trip id="bike190" type="bike_bicycle" depart="1140.00" departLane="best" from="D1D2" to="B3B4"/>
    <trip id="bike191" type="bike_bicycle" depart="1146.00" departLane="best" from="B3C3" to="C1C0"/>
    <trip id="bike192" type="bike_bicycle" depart="1152.00" departLane="best" from="C1B1" to="B3B4"/>
    <trip id="bike193" type="bike_bicycle" depart="1158.00" departLane="best" departSpeed="max" from="B0B1" to="C1C2"/>
    <trip id="bike194" type="bike_bicycle" depart="1164.00" departLane="best" departSpeed="max" from="E2D2" to="D1D0"/>
    <trip id="bike195" type="bike_bicycle" depart="1170.00" departLane="best" departSpeed="max" from="E1D1" to="C3C4"/>
    <trip id="bike196" type="bike_bicycle" depart="1176.00" departLane="best" from="B3C3" to="C3B3"/>
    <trip id="bike197" type="bike_bicycle" depart="1182.00" departLane="best" departSpeed="max" from="A1B1" to="B3B2"/>
    <trip id="bike198" type="bike_bicycle" depart="1188.00" departLane="best" from="C1C2" to="C3C2"/>
    <trip id="bike199" type="bike_bicycle" depart="1194.00" departLane="best" departSpeed="max" from="D0D1" to="C2B2"/>
    <trip id="bike200" type="bike_bicycle" depart="1200.00" departLane="best" from="C1D1" to="B2C2"/>
    <trip id="bike201" type="bike_bicycle" depart="1206.00" departLane="best" from="C2B2" to="D3D2"/>
    <trip id="bike202" type="bike_bicycle" depart="1212.00" departLane="best" from="D3C3" to="B2B1"/>
    <trip id="bike203" type="bike_bicycle" depart="1218.00" departLane="best" departSpeed="max" from="A3B3" to="C2C3"/>
    <trip id="bike204" type="bike_bicycle" depart="1224.00" departLane="best" departSpeed="max" from="C4C3" to="B3C3"/>
    <trip id="bike205" type="bike_bicycle" depart="1230.00" departLane="best" from="D3D2" to="D1E1"/>
    <trip id="bike206" type="bike_bicycle" depart="1236.00" departLane="best" departSpeed="max" from="D0D1" to="B2C2"/>
    <trip id="bike207" type="bike_bicycle" depart="1242.00" departLane="best" from="B1C1" to="B1A1"/>
    <trip id="bike208" type="bike_bicycle" depart="1248.00" departLane="best" from="B2B3" to="C2B2"/>
    <trip id="bike209" type="bike_bicycle" depart="1254.00" departLane="best" departSpeed="max" from="D4D3" to="B1B0"/>
    <trip id="bike210" type="bike_bicycle" depart="1260.00" departLane="best" from="C1B1" to="C3D3"/>
    <trip id="bike211" type="bike_bicycle" depart="1266.00" departLane="best" from="B1C1" to="D1D0"/>
    <trip id="bike212" type="bike_bicycle" depart="1272.00" departLane="best" from="C2C1" to="B3A3"/>
    <trip id="bike213" type="bike_bicycle" depart="1278.00" departLane="best" departSpeed="max" from="D0D1" to="B1A1"/>
    <trip id="bike214" type="bike_bicycle" depart="1284.00" departLane="best" from="D2D1" to="D1E1"/>
    <trip id="bike215" type="bike_bicycle" depart="1290.00" departLane="best" departSpeed="max" from="A3B3" to="C1C2"/>
    <trip id="bike216" type="bike_bicycle" depart="1296.00" departLane="best" from="B1B2" to="D3D4"/>
    <trip id="bike217" type="bike_bicycle" depart="1302.00" departLane="best" from="C2C3" to="B1B0"/>
    <trip id="bike218" type="bike_bicycle" depart="1308.00" departLane="best" from="B2B3" to="D2E2"/>
    <trip id="bike219" type="bike_bicycle" depart="1314.00" departLane="best" from="C1D1" to="D2D1"/>
    <trip id="bike220" type="bike_bicycle" depart="1320.00" departLane="best" departSpeed="max" from="D0D1" to="D3E3"/>
    <trip id="bike221" type="bike_bicycle" depart="1326.00" departLane="best" from="C3D3" to="D3D4"/>
    <trip id="bike222" type="bike_bicycle" depart="1332.00" departLane="best" departSpeed="max" from="E1D1" to="C3C4"/>
    <trip id="bike223" type="bike_bicycle" depart="1338.00" departLane="best" from="D1D2" to="C2C3"/>
    <trip id="bike224" type="bike_bicycle" depart="1344.00" departLane="best" from="D3D2" to="C3B3"/>
    <trip id="bike225" type="bike_bicycle" depart="1350.00" departLane="best" departSpeed="max" from="E1D1" to="D1E1"/>
    <trip id="bike226" type="bike_bicycle" depart="1356.00" departLane="best" from="C2B2" to="B3A3"/>
    <trip id="bike227" type="bike_bicycle" depart="1362.00" departLane="best" from="B2B3" to="C3D3"/>
    <trip id="bike228" type="bike_bicycle" depart="1368.00" departLane="best" from="D2D1" to="C2D2"/>
    <trip id="bike229" type="bike_bicycle" depart="1374.00" departLane="best" departSpeed="max" from="C4C3" to="B3B2"/>
    <trip id="bike230" type="bike_bicycle" depart="1380.00" departLane="best" departSpeed="max" from="A2B2" to="B3B2"/>
    <trip id="bike231" type="bike_bicycle" depart="1386.00" departLane="best" from="B3B2" to="B3B4"/>
    <trip id="bike232" type="bike_bicycle" depart="1392.00" departLane="best" from="C2D2" to="B2A2"/>
    <trip id="bike233" type="bike_bicycle" depart="1398.00" departLane="best" from="B2B3" to="D1D0"/>
    <trip id="bike234" type="bike_bicycle" depart="1404.00" departLane="best" from="D1C1" to="B1B0"/>
    <trip id="bike235" type="bike_bicycle" depart="1410.00" departLane="best" from="C1B1" to="C3B3"/>
    <trip id="bike236" type="bike_bicycle" depart="1416.00" departLane="best" from="C1B1" to="B2B3"/>
    <trip id="bike237" type="bike_bicycle" depart="1422.00" departLane="best" from="C1C2" to="D3D2"/>
    <trip id="bike238" type="bike_bicycle" depart="1428.00" departLane="best" from="C3D3" to="D1D0"/>
    <trip id="bike239" type="bike_bicycle" depart="1434.00" departLane="best" departSpeed="max" from="D4D3" to="D1E1"/>
    <trip id="bike240" type="bike_bicycle" depart="1440.00" departLane="best" departSpeed="max" from="C0C1" to="B1A1"/>
    <trip id="bike241" type="bike_bicycle" depart="1446.00" departLane="best" departSpeed="max" from="B4B3" to="D1E1"/>
    <trip id="bike242" type="bike_bicycle" depart="1452.00" departLane="best" departSpeed="max" from="D4D3" to="D3D4"/>
    <trip id="bike243" type="bike_bicycle" depart="1458.00" departLane="best" from="C1C2" to="D1E1"/>
    <trip id="bike244" type="bike_bicycle" depart="1464.00" departLane="best" from="C3B3" to="C3C4"/>
    <trip id="bike245" type="bike_bicycle" depart="1470.00" departLane="best" from="B2B1" to="B2C2"/>
    <trip id="bike246" type="bike_bicycle" depart="1476.00" departLane="best" from="C1C2" to="B1A1"/>
    <trip id="bike247" type="bike_bicycle" depart="1482.00" departLane="best" departSpeed="max" from="B4B3" to="D1D0"/>
    <trip id="bike248" type="bike_bicycle" depart="1488.00" departLane="best" from="C1B1" to="B2A2"/>
    <trip id="bike249" type="bike_bicycle" depart="1494.00" departLane="best" from="C2B2" to="B2A2"/>
    <trip id="bike250" type="bike_bicycle" depart="1500.00" departLane="best" departSpeed="max" from="C4C3" to="B1A1"/>
    <trip id="bike251" type="bike_bicycle" depart="1506.00" departLane="best" departSpeed="max" from="C0C1" to="C3C2"/>
    <trip id="bike252" type="bike_bicycle" depart="1512.00" departLane="best" departSpeed="max" from="A1B1" to="C3D3"/>
    <trip id="bike253" type="bike_bicycle" depart="1518.00" departLane="best" departSpeed="max" from="B0B1" to="C2B2"/>
    <trip id="bike254" type="bike_bicycle" depart="1524.00" departLane="best" departSpeed="max" from="A2B2" to="C1C0"/>
    <trip id="bike255" type="bike_bicycle" depart="1530.00" departLane="best" from="B2B1" to="B3B4"/>
    <trip id="bike256" type="bike_bicycle" depart="1536.00" departLane="best" from="D2D1" to="C1C0"/>
    <trip id="bike257" type="bike_bicycle" depart="1542.00" departLane="best" from="D2D1" to="D2D3"/>
    <trip id="bike258" type="bike_bicycle" depart="1548.00" departLane="best" from="B2C2" to="B1B0"/>
    <trip id="bike259" type="bike_bicycle" depart="1554.00" departLane="best" departSpeed="max" from="A1B1" to="C2D2"/>
    <trip id="bike260" type="bike_bicycle" depart="1560.00" departLane="best" departSpeed="max" from="E3D3" to="B3C3"/>
    <trip id="bike261" type="bike_bicycle" depart="1566.00" departLane="best" departSpeed="max" from="D0D1" to="D2C2"/>
    <trip id="bike262" type="bike_bicycle" depart="1572.00" departLane="best" departSpeed="max" from="D0D1" to="D1E1"/>
    <trip id="bike263" type="bike_bicycle" depart="1578.00" departLane="best" departSpeed="max" from="E2D2" to="B2B3"/>