<?xml version="1.0" encoding="UTF-8"?>

<!-- generated on Mon Dec  9 23:24:55 2019 by Eclipse SUMO duarouter Version 1.3.1
<configuration xmlns:xsi="http://www.w3.org/2001/XMLSchema-instance" xsi:noNamespaceSchemaLocation="http://sumo.dlr.de/xsd/duarouterConfiguration.xsd">

    <input>
        <net-file value="optimal3.net.xml"/>
        <route-files value="optimal.passenger.trips.xml"/>
    </input>

    <output>
        <output-file value="optimal.passenger.rou.xml"/>
        <alternatives-output value="optimal.passenger.rou.alt.xml"/>
    </output>

    <time>
        <begin value="0"/>
        <end value="3600.0"/>
    </time>

    <report>
        <no-warnings value="true"/>
        <ignore-errors value="true"/>
        <no-step-log value="true"/>
    </report>

</configuration>
-->

<routes xmlns:xsi="http://www.w3.org/2001/XMLSchema-instance" xsi:noNamespaceSchemaLocation="http://sumo.dlr.de/xsd/routes_file.xsd">
    <vType id="veh_passenger" vClass="passenger"/>
    <vehicle id="veh0" type="veh_passenger" depart="0.00" departLane="best" departSpeed="max">
        <route edges="D0D1 D1C1 C1B1 B1A1"/>
    </vehicle>
    <vehicle id="veh1" type="veh_passenger" depart="4.18" departLane="best" departSpeed="max">
        <route edges="E2D2 D2C2 C2B2 B2B1 B1B0"/>
    </vehicle>
    <vehicle id="veh2" type="veh_passenger" depart="8.36" departLane="best" departSpeed="max">
        <route edges="B0B1 B1B2 B2C2 C2C3"/>
    </vehicle>
    <vehicle id="veh3" type="veh_passenger" depart="12.55" departLane="best" departSpeed="max">
        <route edges="B0B1 B1B2 B2C2 C2C3 C3C4"/>
    </vehicle>
    <vehicle id="veh4" type="veh_passenger" depart="16.73" departLane="best" departSpeed="max">
        <route edges="D4D3 D3D2 D2D1 D1C1 C1B1 B1A1"/>
    </vehicle>
    <vehicle id="veh5" type="veh_passenger" depart="20.91" departLane="best" departSpeed="max">
        <route edges="E3D3 D3C3 C3B3 B3B4"/>
    </vehicle>
    <vehicle id="veh6" type="veh_passenger" depart="25.09" departLane="best" departSpeed="max">
        <route edges="E1D1 D1C1 C1C2 C2C3 C3C4"/>
    </vehicle>
    <vehicle id="veh7" type="veh_passenger" depart="29.28" departLane="best" departSpeed="max">
        <route edges="D4D3 D3D2 D2D1 D1E1"/>
    </vehicle>
    <vehicle id="veh8" type="veh_passenger" depart="33.46" departLane="best" departSpeed="max">
        <route edges="E1D1 D1C1 C1C2 C2C3 C3C4"/>
    </vehicle>
    <vehicle id="veh9" type="veh_passenger" depart="37.64" departLane="best">
        <route edges="D2C2 C2C1 C1B1 B1A1"/>
    </vehicle>
    <vehicle id="veh10" type="veh_passenger" depart="41.82" departLane="best" departSpeed="max">
        <route edges="B0B1 B1B2 B2B3 B3A3"/>
    </vehicle>
    <vehicle id="veh11" type="veh_passenger" depart="46.01" departLane="best" departSpeed="max">
        <route edges="D0D1 D1C1 C1B1 B1B2 B2B3 B3B4"/>
    </vehicle>
    <vehicle id="veh12" type="veh_passenger" depart="50.19" departLane="best" departSpeed="max">
        <route edges="B4B3 B3B2 B2B1"/>
    </vehicle>
    <vehicle id="veh13" type="veh_passenger" depart="54.37" departLane="best" departSpeed="max">
        <route edges="D0D1 D1C1 C1C2 C2C3 C3D3"/>
    </vehicle>
    <vehicle id="veh14" type="veh_passenger" depart="58.55" departLane="best" departSpeed="max">
        <route edges="A3B3 B3C3 C3C2 C2C1 C1D1 D1E1"/>
    </vehicle>
    <vehicle id="veh15" type="veh_passenger" depart="62.74" departLane="best" departSpeed="max">
        <route edges="E3D3 D3D2 D2D1 D1D0"/>
    </vehicle>
    <vehicle id="veh16" type="veh_passenger" depart="66.92" departLane="best">
        <route edges="C3D3 D3D2 D2D1 D1D0"/>
    </vehicle>
    <vehicle id="veh17" type="veh_passenger" depart="71.10" departLane="best" departSpeed="max">
        <route edges="B0B1 B1B2 B2B3 B3C3 C3D3 D3E3"/>
    </vehicle>
    <vehicle id="veh18" type="veh_passenger" depart="75.28" departLane="best" departSpeed="max">
        <route edges="E1D1 D1C1 C1B1 B1B2 B2B3 B3B4"/>
    </vehicle>
    <vehicle id="veh19" type="veh_passenger" depart="79.47" departLane="best" departSpeed="max">
        <route edges="C0C1 C1B1 B1B2 B2B3"/>
    </vehicle>
    <vehicle id="veh20" type="veh_passenger" depart="83.65" departLane="best" departSpeed="max">
        <route edges="D4D3 D3D2 D2C2 C2C1 C1C0"/>
    </vehicle>
    <vehicle id="veh21" type="veh_passenger" depart="87.83" departLane="best" departSpeed="max">
        <route edges="E3D3 D3C3 C3B3"/>
    </vehicle>
    <vehicle id="veh22" type="veh_passenger" depart="92.01" departLane="best" departSpeed="max">
        <route edges="A1B1 B1C1 C1D1 D1E1"/>
    </vehicle>
    <vehicle id="veh23" type="veh_passenger" depart="96.20" departLane="best" departSpeed="max">
        <route edges="E1D1 D1C1 C1C2 C2C3 C3B3 B3A3"/>
    </vehicle>
    <vehicle id="veh24" type="veh_passenger" depart="100.38" departLane="best">
        <route edges="B3B2 B2C2 C2D2 D2D1 D1D0"/>
    </vehicle>
    <vehicle id="veh25" type="veh_passenger" depart="104.56" departLane="best" departSpeed="max">
        <route edges="A1B1 B1B2 B2B3 B3B4"/>
    </vehicle>
    <vehicle id="veh26" type="veh_passenger" depart="108.74" departLane="best" departSpeed="max">
        <route edges="A1B1 B1C1 C1D1 D1D2 D2D3 D3D4"/>
    </vehicle>
    <vehicle id="veh27" type="veh_passenger" depart="112.93" departLane="best" departSpeed="max">
        <route edges="A2B2 B2C2 C2C1 C1D1 D1E1"/>
    </vehicle>
    <vehicle id="veh28" type="veh_passenger" depart="117.11" departLane="best">
        <route edges="C1D1 D1D2 D2C2 C2C3 C3C4"/>
    </vehicle>
    <vehicle id="veh29" type="veh_passenger" depart="121.29" departLane="best" departSpeed="max">
        <route edges="B0B1 B1B2 B2B3 B3B4"/>
    </vehicle>
    <vehicle id="veh30" type="veh_passenger" depart="125.47" departLane="best" departSpeed="max">
        <route edges="E3D3 D3D2 D2D1 D1D0"/>
    </vehicle>
    <vehicle id="veh31" type="veh_passenger" depart="129.66" departLane="best" departSpeed="max">
        <route edges="B0B1 B1B2 B2B3"/>
    </vehicle>
    <vehicle id="veh32" type="veh_passenger" depart="133.84" departLane="best" departSpeed="max">
        <route edges="A2B2 B2C2 C2D2 D2D1 D1D0"/>
    </vehicle>
    <vehicle id="veh33" type="veh_passenger" depart="138.02" departLane="best" departSpeed="max">
        <route edges="B0B1 B1B2 B2C2 C2D2 D2D3 D3D4"/>
    </vehicle>
    <vehicle id="veh34" type="veh_passenger" depart="142.20" departLane="best" departSpeed="max">
        <route edges="E1D1 D1C1 C1B1 B1B0"/>
    </vehicle>
    <vehicle id="veh35" type="veh_passenger" depart="146.39" departLane="best" departSpeed="max">
        <route edges="D4D3 D3D2 D2C2 C2B2 B2A2"/>
    </vehicle>
    <vehicle id="veh36" type="veh_passenger" depart="150.57" departLane="best" departSpeed="max">
        <route edges="E3D3 D3C3 C3B3 B3B2 B2B1 B1B0"/>
    </vehicle>
    <vehicle id="veh37" type="veh_passenger" depart="154.75" departLane="best" departSpeed="max">
        <route edges="C0C1 C1B1 B1B2 B2B3 B3B4"/>
    </vehicle>
    <vehicle id="veh38" type="veh_passenger" depart="158.93" departLane="best" departSpeed="max">
        <route edges="E1D1 D1C1 C1C2 C2C3 C3B3 B3A3"/>
    </vehicle>
    <vehicle id="veh39" type="veh_passenger" depart="163.12" departLane="best" departSpeed="max">
        <route edges="C0C1 C1C2 C2C3 C3B3 B3A3"/>
    </vehicle>
    <vehicle id="veh40" type="veh_passenger" depart="167.30" departLane="best">
        <route edges="B1B2 B2B3 B3C3 C3D3 D3D4"/>
    </vehicle>
    <vehicle id="veh41" type="veh_passenger" depart="171.48" departLane="best" departSpeed="max">
        <route edges="E1D1 D1C1 C1C2 C2B2 B2A2"/>
    </vehicle>
    <vehicle id="veh42" type="veh_passenger" depart="175.66" departLane="best" departSpeed="max">
        <route edges="B4B3 B3C3 C3D3 D3E3"/>
    </vehicle>
    <vehicle id="veh43" type="veh_passenger" depart="179.85" departLane="best" departSpeed="max">
        <route edges="A1B1 B1C1 C1C2 C2C3 C3C4"/>
    </vehicle>
    <vehicle id="veh44" type="veh_passenger" depart="184.03" departLane="best" departSpeed="max">
        <route edges="A3B3 B3C3 C3D3 D3E3"/>
    </vehicle>
    <vehicle id="veh45" type="veh_passenger" depart="188.21" departLane="best" departSpeed="max">
        <route edges="C4C3 C3D3 D3D2 D2D1 D1D0"/>
    </vehicle>
    <vehicle id="veh46" type="veh_passenger" depart="192.39" departLane="best" departSpeed="max">
        <route edges="E2D2 D2C2 C2C3 C3B3 B3A3"/>
    </vehicle>
    <vehicle id="veh47" type="veh_passenger" depart="196.58" departLane="best" departSpeed="max">
        <route edges="C4C3 C3D3 D3D2 D2D1 D1C1"/>
    </vehicle>
    <vehicle id="veh48" type="veh_passenger" depart="200.76" departLane="best" departSpeed="max">
        <route edges="C0C1 C1C2 C2C3 C3C4"/>
    </vehicle>
    <vehicle id="veh49" type="veh_passenger" depart="204.94" departLane="best" departSpeed="max">
        <route edges="B0B1 B1C1 C1D1 D1E1"/>
    </vehicle>
    <vehicle id="veh50" type="veh_passenger" depart="209.12" departLane="best">
        <route edges="B3C3 C3D3 D3D2 D2D1 D1E1"/>
    </vehicle>
    <vehicle id="veh51" type="veh_passenger" depart="213.31" departLane="best" departSpeed="max">
        <route edges="D0D1 D1C1 C1B1 B1A1"/>
    </vehicle>
    <vehicle id="veh52" type="veh_passenger" depart="217.49" departLane="best" departSpeed="max">
        <route edges="D0D1 D1D2 D2D3 D3D4"/>
    </vehicle>
    <vehicle id="veh53" type="veh_passenger" depart="221.67" departLane="best" departSpeed="max">
        <route edges="A3B3 B3B2 B2B1 B1B0"/>
    </vehicle>
    <vehicle id="veh54" type="veh_passenger" depart="225.85" departLane="best" departSpeed="max">
        <route edges="D0D1 D1D2 D2D3 D3C3 C3B3 B3A3"/>
    </vehicle>
    <vehicle id="veh55" type="veh_passenger" depart="230.04" departLane="best" departSpeed="max">
        <route edges="E1D1 D1C1 C1B1 B1B0"/>
    </vehicle>
    <vehicle id="veh56" type="veh_passenger" depart="234.22" departLane="best" departSpeed="max">
        <route edges="C0C1 C1C2 C2C3 C3B3 B3A3"/>
    </vehicle>
    <vehicle id="veh57" type="veh_passenger" depart="238.40" departLane="best" departSpeed="max">
        <route edges="D0D1 D1D2 D2D3 D3C3 C3B3 B3A3"/>
    </vehicle>
    <vehicle id="veh58" type="veh_passenger" depart="242.58" departLane="best" departSpeed="max">
        <route edges="A2B2 B2C2 C2D2 D2D3 D3D4"/>
    </vehicle>
    <vehicle id="veh59" type="veh_passenger" depart="246.77" departLane="best" departSpeed="max">
        <route edges="E1D1 D1C1 C1C2 C2C3 C3C4"/>
    </vehicle>
    <vehicle id="veh60" type="veh_passenger" depart="250.95" departLane="best" departSpeed="max">
        <route edges="E2D2 D2C2 C2B2 B2B1"/>
    </vehicle>
    <vehicle id="veh61" type="veh_passenger" depart="255.13" departLane="best" departSpeed="max">
        <route edges="A3B3 B3C3 C3D3 D3D4"/>
    </vehicle>
    <vehicle id="veh62" type="veh_passenger" depart="259.31" departLane="best" departSpeed="max">
        <route edges="A1B1 B1C1 C1D1 D1E1"/>
    </vehicle>
    <vehicle id="veh63" type="veh_passenger" depart="263.50" departLane="best" departSpeed="max">
        <route edges="D4D3 D3C3 C3B3 B3A3"/>
    </vehicle>
    <vehicle id="veh64" type="veh_passenger" depart="267.68" departLane="best" departSpeed="max">
        <route edges="D4D3 D3D2 D2C2 C2B2 B2B1 B1B0"/>
    </vehicle>
    <vehicle id="veh65" type="veh_passenger" depart="271.86" departLane="best" departSpeed="max">
        <route edges="B0B1 B1B2 B2C2 C2D2 D2E2"/>
    </vehicle>
    <vehicle id="veh66" type="veh_passenger" depart="276.04" departLane="best" departSpeed="max">
        <route edges="E3D3 D3C3 C3B3 B3A3"/>
    </vehicle>
    <vehicle id="veh67" type="veh_passenger" depart="280.23" departLane="best" departSpeed="max">
        <route edges="E2D2 D2C2 C2B2 B2B1 B1B0"/>
    </vehicle>
    <vehicle id="veh68" type="veh_passenger" depart="284.41" departLane="best" departSpeed="max">
        <route edges="E3D3 D3D2 D2C2 C2B2 B2A2"/>
    </vehicle>
    <vehicle id="veh69" type="veh_passenger" depart="288.59" departLane="best" departSpeed="max">
        <route edges="E3D3 D3C3 C3B3 B3A3"/>
    </vehicle>
    <vehicle id="veh70" type="veh_passenger" depart="292.77" departLane="best" departSpeed="max">
        <route edges="C0C1 C1C2 C2C3 C3C4"/>
    </vehicle>
    <vehicle id="veh71" type="veh_passenger" depart="296.96" departLane="best">
        <route edges="B1C1 C1D1 D1E1"/>
    </vehicle>
    <vehicle id="veh72" type="veh_passenger" depart="301.14" departLane="best" departSpeed="max">
        <route edges="A1B1 B1C1 C1D1 D1D2 D2D3 D3D4"/>
    </vehicle>
    <vehicle id="veh73" type="veh_passenger" depart="305.32" departLane="best">
        <route edges="D3C3 C3C2 C2D2 D2D1 D1D0"/>
    </vehicle>
    <vehicle id="veh74" type="veh_passenger" depart="309.50" departLane="best" departSpeed="max">
        <route edges="B4B3 B3B2 B2B1 B1B0"/>
    </vehicle>
    <vehicle id="veh75" type="veh_passenger" depart="313.69" departLane="best" departSpeed="max">
        <route edges="D0D1 D1C1 C1B1 B1B2 B2B3 B3B4"/>
    </vehicle>
    <vehicle id="veh76" type="veh_passenger" depart="317.87" departLane="best">
        <route edges="B3C3 C3D3 D3D2 D2E2"/>
    </vehicle>
    <vehicle id="veh77" type="veh_passenger" depart="322.05" departLane="best">
        <route edges="B3B2 B2C2 C2C1 C1C0"/>
    </vehicle>
    <vehicle id="veh78" type="veh_passenger" depart="326.23" departLane="best" departSpeed="max">
        <route edges="C0C1 C1C2 C2C3 C3B3 B3A3"/>
    </vehicle>
    <vehicle id="veh79" type="veh_passenger" depart="330.42" departLane="best" departSpeed="max">
        <route edges="A3B3 B3C3 C3C2 C2C1 C1C0"/>
    </vehicle>
    <vehicle id="veh80" type="veh_passenger" depart="334.60" departLane="best" departSpeed="max">
        <route edges="C0C1 C1C2 C2C3 C3C4"/>
    </vehicle>
    <vehicle id="veh81" type="veh_passenger" depart="338.78" departLane="best">
        <route edges="C1D1 D1D2 D2D3 D3D4"/>
    </vehicle>
    <vehicle id="veh82" type="veh_passenger" depart="342.96" departLane="best" departSpeed="max">
        <route edges="D4D3 D3D2 D2C2 C2B2 B2A2"/>
    </vehicle>
    <vehicle id="veh83" type="veh_passenger" depart="347.15" departLane="best" departSpeed="max">
        <route edges="A2B2 B2C2 C2D2"/>
    </vehicle>
    <vehicle id="veh84" type="veh_passenger" depart="351.33" departLane="best" departSpeed="max">
        <route edges="D0D1 D1C1 C1B1 B1B2 B2B3 B3B4"/>
    </vehicle>
    <vehicle id="veh85" type="veh_passenger" depart="355.51" departLane="best" departSpeed="max">
        <route edges="D4D3 D3D2 D2D1 D1E1"/>
    </vehicle>
    <vehicle id="veh86" type="veh_passenger" depart="359.69" departLane="best" departSpeed="max">
        <route edges="D0D1 D1C1 C1B1 B1B2 B2B3"/>
    </vehicle>
    <vehicle id="veh87" type="veh_passenger" depart="363.88" departLane="best" departSpeed="max">
        <route edges="E1D1 D1C1 C1B1 B1B0"/>
    </vehicle>
    <vehicle id="veh88" type="veh_passenger" depart="368.06" departLane="best" departSpeed="max">
        <route edges="D0D1 D1C1 C1B1 B1A1"/>
    </vehicle>
    <vehicle id="veh89" type="veh_passenger" depart="372.24" departLane="best" departSpeed="max">
        <route edges="A3B3 B3C3 C3D3 D3E3"/>
    </vehicle>
    <vehicle id="veh90" type="veh_passenger" depart="376.42" departLane="best">
        <route edges="B1B2 B2C2 C2D2 D2E2"/>
    </vehicle>
    <vehicle id="veh91" type="veh_passenger" depart="380.61" departLane="best" departSpeed="max">
        <route edges="D0D1 D1D2 D2D3 D3E3"/>
    </vehicle>
    <vehicle id="veh92" type="veh_passenger" depart="384.79" departLane="best" departSpeed="max">
        <route edges="E1D1 D1C1 C1C2 C2C3 C3C4"/>
    </vehicle>
    <vehicle id="veh93" type="veh_passenger" depart="388.97" departLane="best" departSpeed="max">
        <route edges="D0D1 D1D2 D2D3 D3C3 C3B3 B3A3"/>
    </vehicle>
    <vehicle id="veh94" type="veh_passenger" depart="393.15" departLane="best" departSpeed="max">
        <route edges="C0C1 C1C2 C2D2 D2D3 D3D4"/>
    </vehicle>
    <vehicle id="veh95" type="veh_passenger" depart="397.34" departLane="best" departSpeed="max">
        <route edges="B4B3 B3B2 B2B1 B1A1"/>
    </vehicle>
    <vehicle id="veh96" type="veh_passenger" depart="401.52" departLane="best" departSpeed="max">
        <route edges="B4B3 B3B2 B2B1 B1C1 C1D1 D1E1"/>
    </vehicle>
    <vehicle id="veh97" type="veh_passenger" depart="405.70" departLane="best" departSpeed="max">
        <route edges="B0B1 B1B2 B2B3"/>
    </vehicle>
    <vehicle id="veh98" type="veh_passenger" depart="409.88" departLane="best" departSpeed="max">
        <route edges="B4B3 B3C3 C3D3 D3D2 D2D1 D1D0"/>
    </vehicle>
    <vehicle id="veh99" type="veh_passenger" depart="414.07" departLane="best" departSpeed="max">
        <route edges="D0D1 D1C1 C1B1 B1A1"/>
    </vehicle>
    <vehicle id="veh100" type="veh_passenger" depart="418.25" departLane="best" departSpeed="max">
        <route edges="C0C1 C1C2 C2C3 C3C4"/>
    </vehicle>
    <vehicle id="veh101" type="veh_passenger" depart="422.43" departLane="best" departSpeed="max">
        <route edges="A1B1 B1C1 C1D1 D1D0"/>
    </vehicle>
    <vehicle id="veh102" type="veh_passenger" depart="426.61" departLane="best" departSpeed="max">
        <route edges="B0B1 B1B2 B2B3 B3B4"/>
    </vehicle>
    <vehicle id="veh103" type="veh_passenger" depart="430.80" departLane="best" departSpeed="max">
        <route edges="E3D3 D3C3 C3B3 B3B4"/>
    </vehicle>
    <vehicle id="veh104" type="veh_passenger" depart="434.98" departLane="best" departSpeed="max">
        <route edges="E3D3 D3D2 D2C2 C2B2 B2A2"/>
    </vehicle>
    <vehicle id="veh105" type="veh_passenger" depart="439.16" departLane="best" departSpeed="max">
        <route edges="A3B3 B3C3 C3D3 D3D2 D2D1 D1D0"/>
    </vehicle>
    <vehicle id="veh106" type="veh_passenger" depart="443.34" departLane="best" departSpeed="max">
        <route edges="A3B3 B3C3 C3D3"/>
    </vehicle>
    <vehicle id="veh107" type="veh_passenger" depart="447.53" departLane="best">
        <route edges="D3C3 C3B3 B3B2 B2B1 B1B0"/>
    </vehicle>
    <vehicle id="veh108" type="veh_passenger" depart="451.71" departLane="best">
        <route edges="B3C3 C3D3 D3D2 D2D1 D1D0"/>
    </vehicle>
    <vehicle id="veh109" type="veh_passenger" depart="455.89" departLane="best" departSpeed="max">
        <route edges="E3D3 D3C3 C3C2 C2C1 C1C0"/>
    </vehicle>
    <vehicle id="veh110" type="veh_passenger" depart="460.07" departLane="best" departSpeed="max">
        <route edges="E1D1 D1C1 C1C2 C2C3 C3C4"/>
    </vehicle>
    <vehicle id="veh111" type="veh_passenger" depart="464.26" departLane="best" departSpeed="max">
        <route edges="A3B3 B3C3 C3D3 D3E3"/>
    </vehicle>
    <vehicle id="veh112" type="veh_passenger" depart="468.44" departLane="best" departSpeed="max">
        <route edges="C0C1 C1B1 B1B2 B2B3 B3C3"/>
    </vehicle>
    <vehicle id="veh113" type="veh_passenger" depart="472.62" departLane="best" departSpeed="max">
        <route edges="A2B2 B2B3 B3C3 C3D3 D3E3"/>
    </vehicle>
    <vehicle id="veh114" type="veh_passenger" depart="476.80" departLane="best">
        <route edges="B2B1 B1C1 C1C2 C2D2 D2E2"/>
    </vehicle>
    <vehicle id="veh115" type="veh_passenger" depart="480.99" departLane="best">
        <route edges="B2B1 B1C1 C1C2 C2D2 D2E2"/>
    </vehicle>
    <vehicle id="veh116" type="veh_passenger" depart="485.17" departLane="best" departSpeed="max">
        <route edges="E1D1 D1C1 C1B1 B1B0"/>
    </vehicle>
    <vehicle id="veh117" type="veh_passenger" depart="489.35" departLane="best" departSpeed="max">
        <route edges="E2D2 D2C2 C2C3 C3B3 B3A3"/>
    </vehicle>
    <vehicle id="veh118" type="veh_passenger" depart="493.53" departLane="best" departSpeed="max">
        <route edges="B4B3 B3B2 B2B1 B1A1"/>
    </vehicle>
    <vehicle id="veh119" type="veh_passenger" depart="497.72" departLane="best" departSpeed="max">
        <route edges="E1D1 D1C1 C1C2 C2B2 B2A2"/>
    </vehicle>
    <vehicle id="veh120" type="veh_passenger" depart="501.90" departLane="best" departSpeed="max">
        <route edges="B0B1 B1B2 B2C2 C2D2 D2E2"/>
    </vehicle>
    <vehicle id="veh121" type="veh_passenger" depart="506.08" departLane="best">
        <route edges="D1D2 D2D3 D3C3 C3B3 B3A3"/>
    </vehicle>
    <vehicle id="veh122" type="veh_passenger" depart="510.26" departLane="best" departSpeed="max">
        <route edges="A1B1 B1B2 B2B3 B3C3 C3D3 D3E3"/>
    </vehicle>
    <vehicle id="veh123" type="veh_passenger" depart="514.45" departLane="best" departSpeed="max">
        <route edges="A2B2 B2C2 C2C1 C1D1 D1E1"/>
    </vehicle>
    <vehicle id="veh124" type="veh_passenger" depart="518.63" departLane="best" departSpeed="max">
        <route edges="C4C3 C3C2 C2C1 C1D1"/>
    </vehicle>
    <vehicle id="veh125" type="veh_passenger" depart="522.81" departLane="best">
        <route edges="C3B3 B3B2 B2C2 C2C1 C1C0"/>
    </vehicle>
    <vehicle id="veh126" type="veh_passenger" depart="526.99" departLane="best">
        <route edges="D2C2 C2B2 B2B3 B3A3"/>
    </vehicle>
    <vehicle id="veh127" type="veh_passenger" depart="531.18" departLane="best" departSpeed="max">
        <route edges="B0B1 B1B2 B2B3"/>
    </vehicle>
    <vehicle id="veh128" type="veh_passenger" depart="535.36" departLane="best" departSpeed="max">
        <route edges="E3D3 D3C3 C3B3"/>
    </vehicle>
    <vehicle id="veh129" type="veh_passenger" depart="539.54" departLane="best" departSpeed="max">
        <route edges="E1D1 D1C1 C1C2 C2C3 C3C4"/>
    </vehicle>
    <vehicle id="veh130" type="veh_passenger" depart="543.72" departLane="best" departSpeed="max">
        <route edges="E3D3 D3D2 D2C2 C2B2"/>
    </vehicle>
    <vehicle id="veh131" type="veh_passenger" depart="547.91" departLane="best" departSpeed="max">
        <route edges="E3D3 D3C3 C3B3 B3B2 B2B1 B1B0"/>
    </vehicle>
    <vehicle id="veh132" type="veh_passenger" depart="552.09" departLane="best" departSpeed="max">
        <route edges="E3D3 D3C3 C3B3 B3B2"/>
    </vehicle>
    <vehicle id="veh133" type="veh_passenger" depart="556.27" departLane="best" departSpeed="max">
        <route edges="D0D1 D1C1 C1C2 C2C3 C3D3"/>
    </vehicle>
    <vehicle id="veh134" type="veh_passenger" depart="560.45" departLane="best" departSpeed="max">
        <route edges="D0D1 D1D2 D2C2 C2B2 B2A2"/>
    </vehicle>
    <vehicle id="veh135" type="veh_passenger" depart="564.63" departLane="best" departSpeed="max">
        <route edges="A3B3 B3B2 B2B1 B1B0"/>
    </vehicle>
    <vehicle id="veh136" type="veh_passenger" depart="568.82" departLane="best" departSpeed="max">
        <route edges="B0B1 B1C1 C1D1 D1E1"/>
    </vehicle>
    <vehicle id="veh137" type="veh_passenger" depart="573.00" departLane="best">
        <route edges="D1C1 C1C2 C2D2 D2D3 D3D4"/>
    </vehicle>
    <vehicle id="veh138" type="veh_passenger" depart="577.18" departLane="best" departSpeed="max">
        <route edges="D4D3 D3D2 D2D1 D1C1"/>
    </vehicle>
    <vehicle id="veh139" type="veh_passenger" depart="581.36" departLane="best" departSpeed="max">
        <route edges="D0D1 D1D2 D2D3 D3D4"/>
    </vehicle>
    <vehicle id="veh140" type="veh_passenger" depart="585.55" departLane="best" departSpeed="max">
        <route edges="D0D1 D1D2 D2D3 D3D4"/>
    </vehicle>
    <vehicle id="veh141" type="veh_passenger" depart="589.73" departLane="best" departSpeed="max">
        <route edges="E1D1 D1C1 C1B1 B1B0"/>
    </vehicle>
    <vehicle id="veh142" type="veh_passenger" depart="593.91" departLane="best" departSpeed="max">
        <route edges="A2B2 B2B3 B3C3 C3D3 D3E3"/>
    </vehicle>
    <vehicle id="veh143" type="veh_passenger" depart="598.09" departLane="best" departSpeed="max">
        <route edges="E1D1 D1C1 C1C2 C2C3 C3C4"/>
    </vehicle>
    <vehicle id="veh144" type="veh_passenger" depart="602.28" departLane="best" departSpeed="max">
        <route edges="D0D1 D1D2 D2D3 D3C3 C3B3 B3A3"/>
    </vehicle>
    <vehicle id="veh145" type="veh_passenger" depart="606.46" departLane="best" departSpeed="max">
        <route edges="A1B1 B1C1 C1D1 D1E1"/>
    </vehicle>
    <vehicle id="veh146" type="veh_passenger" depart="610.64" departLane="best" departSpeed="max">
        <route edges="E2D2 D2C2 C2B2 B2A2"/>
    </vehicle>
    <vehicle id="veh147" type="veh_passenger" depart="614.82" departLane="best" departSpeed="max">
        <route edges="C4C3 C3D3 D3D2 D2D1 D1D0"/>
    </vehicle>
    <vehicle id="veh148" type="veh_passenger" depart="619.01" departLane="best" departSpeed="max">
        <route edges="D0D1 D1D2 D2D3 D3C3"/>
    </vehicle>
    <vehicle id="veh149" type="veh_passenger" depart="623.19" departLane="best">
        <route edges="B2C2 C2C3 C3D3 D3E3"/>
    </vehicle>
    <vehicle id="veh150" type="veh_passenger" depart="627.37" departLane="best">
        <route edges="C1C2 C2B2 B2B3 B3B4"/>
    </vehicle>
    <vehicle id="veh151" type="veh_passenger" depart="631.55" departLane="best" departSpeed="max">
        <route edges="B4B3 B3C3 C3D3 D3E3"/>
    </vehicle>
    <vehicle id="veh152" type="veh_passenger" depart="635.74" departLane="best" departSpeed="max">
        <route edges="E3D3 D3D2 D2D1 D1D0"/>
    </vehicle>
    <vehicle id="veh153" type="veh_passenger" depart="639.92" departLane="best">
        <route edges="C3C2 C2C1 C1C0"/>
    </vehicle>
    <vehicle id="veh154" type="veh_passenger" depart="644.10" departLane="best" departSpeed="max">
        <route edges="B0B1 B1B2 B2B3 B3B4"/>
    </vehicle>
    <vehicle id="veh155" type="veh_passenger" depart="648.28" departLane="best" departSpeed="max">
        <route edges="A3B3 B3C3 C3D3 D3E3"/>
    </vehicle>
    <vehicle id="veh156" type="veh_passenger" depart="652.47" departLane="best">
        <route edges="C3D3 D3D2 D2D1 D1C1 C1B1 B1B0"/>
    </vehicle>
    <vehicle id="veh157" type="veh_passenger" depart="656.65" departLane="best">
        <route edges="B2B1 B1C1 C1C2 C2D2 D2E2"/>
    </vehicle>
    <vehicle id="veh158" type="veh_passenger" depart="660.83" departLane="best" departSpeed="max">
        <route edges="E3D3 D3C3 C3B3 B3A3"/>
    </vehicle>
    <vehicle id="veh159" type="veh_passenger" depart="665.01" departLane="best" departSpeed="max">
        <route edges="C0C1 C1C2 C2D2 D2D3 D3D4"/>
    </vehicle>
    <vehicle id="veh160" type="veh_passenger" depart="669.20" departLane="best">
        <route edges="C1C2 C2B2 B2B3 B3B4"/>
    </vehicle>
    <vehicle id="veh161" type="veh_passenger" depart="673.38" departLane="best" departSpeed="max">
        <route edges="D4D3 D3D2 D2D1 D1C1 C1B1 B1A1"/>
    </vehicle>
    <vehicle id="veh162" type="veh_passenger" depart="677.56" departLane="best" departSpeed="max">
        <route edges="D4D3 D3D2 D2D1 D1C1 C1B1"/>
    </vehicle>
    <vehicle id="veh163" type="veh_passenger" depart="681.74" departLane="best" departSpeed="max">
        <route edges="D0D1 D1D2 D2C2 C2B2 B2A2"/>
    </vehicle>
    <vehicle id="veh164" type="veh_passenger" depart="685.93" departLane="best" departSpeed="max">
        <route edges="E1D1 D1C1 C1B1 B1A1"/>
    </vehicle>
    <vehicle id="veh165" type="veh_passenger" depart="690.11" departLane="best" departSpeed="max">
        <route edges="A2B2 B2C2 C2D2 D2D1 D1D0"/>
    </vehicle>
    <vehicle id="veh166" type="veh_passenger" depart="694.29" departLane="best">
        <route edges="D3C3 C3C2 C2C1 C1C0"/>
    </vehicle>
    <vehicle id="veh167" type="veh_passenger" depart="698.47" departLane="best" departSpeed="max">
        <route edges="A2B2 B2C2 C2D2 D2D1 D1D0"/>
    </vehicle>
    <vehicle id="veh168" type="veh_passenger" depart="702.66" departLane="best">
        <route edges="D1D2 D2D3 D3D4"/>
    </vehicle>
    <vehicle id="veh169" type="veh_passenger" depart="706.84" departLane="best" departSpeed="max">
        <route edges="A1B1 B1C1 C1D1 D1D2 D2D3"/>
    </vehicle>
    <vehicle id="veh170" type="veh_passenger" depart="711.02" departLane="best" departSpeed="max">
        <route edges="A3B3 B3B2 B2B1 B1B0"/>
    </vehicle>
    <vehicle id="veh171" type="veh_passenger" depart="715.20" departLane="best">
        <route edges="B1B2 B2B3 B3C3 C3D3 D3D4"/>
    </vehicle>
    <vehicle id="veh172" type="veh_passenger" depart="719.39" departLane="best" departSpeed="max">
        <route edges="A1B1 B1B2 B2C2 C2D2 D2E2"/>
    </vehicle>
    <vehicle id="veh173" type="veh_passenger" depart="723.57" departLane="best" departSpeed="max">
        <route edges="A3B3 B3C3 C3C2 C2C1 C1C0"/>
    </vehicle>
    <vehicle id="veh174" type="veh_passenger" depart="727.75" departLane="best">
        <route edges="B1C1 C1C2 C2D2 D2E2"/>
    </vehicle>
    <vehicle id="veh175" type="veh_passenger" depart="731.93" departLane="best" departSpeed="max">
        <route edges="E3D3 D3C3 C3B3 B3A3"/>
    </vehicle>
    <vehicle id="veh176" type="veh_passenger" depart="736.12" departLane="best" departSpeed="max">
        <route edges="E3D3 D3D2 D2D1 D1D0"/>
    </vehicle>
    <vehicle id="veh177" type="veh_passenger" depart="740.30" departLane="best" departSpeed="max">
        <route edges="A1B1 B1C1 C1C2 C2C3 C3C4"/>
    </vehicle>
    <vehicle id="veh178" type="veh_passenger" depart="744.48" departLane="best">
        <route edges="B2C2 C2D2 D2E2"/>
    </vehicle>
    <vehicle id="veh179" type="veh_passenger" depart="748.66" departLane="best" departSpeed="max">
        <route edges="D0D1 D1D2 D2D3 D3D4"/>
    </vehicle>
    <vehicle id="veh180" type="veh_passenger" depart="752.85" departLane="best">
        <route edges="C1B1 B1B2 B2C2 C2C3 C3C4"/>
    </vehicle>
    <vehicle id="veh181" type="veh_passenger" depart="757.03" departLane="best">
        <route edges="B2C2 C2D2 D2D1 D1E1"/>
    </vehicle>
    <vehicle id="veh182" type="veh_passenger" depart="761.21" departLane="best" departSpeed="max">
        <route edges="E1D1 D1C1 C1C2 C2C3 C3B3 B3A3"/>
    </vehicle>
    <vehicle id="veh183" type="veh_passenger" depart="765.39" departLane="best" departSpeed="max">