<?xml version="1.0" encoding="UTF-8"?>

<!-- generated on Mon Dec  9 23:24:55 2019 by Eclipse SUMO duarouter Version 1.3.1
<configuration xmlns:xsi="http://www.w3.org/2001/XMLSchema-instance" xsi:noNamespaceSchemaLocation="http://sumo.dlr.de/xsd/duarouterConfiguration.xsd">

    <input>
        <net-file value="optimal3.net.xml"/>
        <route-files value="optimal.bus.trips.xml"/>
    </input>

    <output>
        <output-file value="optimal.bus.rou.xml"/>
        <alternatives-output value="optimal.bus.rou.alt.xml"/>
    </output>

    <time>
        <begin value="0"/>
        <end value="3600.0"/>
    </time>

    <report>
        <no-warnings value="true"/>
        <ignore-errors value="true"/>
        <no-step-log value="true"/>
    </report>

</configuration>
-->

<routes xmlns:xsi="http://www.w3.org/2001/XMLSchema-instance" xsi:noNamespaceSchemaLocation="http://sumo.dlr.de/xsd/routes_file.xsd">
    <vType id="bus_bus" vClass="bus"/>
    <vehicle id="bus0" type="bus_bus" depart="0.00" departLane="best" departSpeed="max">
        <route edges="D4D3 D3D2 D2D1 D1C1 C1B1 B1B2 B2C2 C2D2 D2E2"/>
    </vehicle>
    <vehicle id="bus1" type="bus_bus" depart="20.41" departLane="best" departSpeed="max">
        <route edges="B0B1 B1B2 B2B3 B3C3 C3C2 C2B2 B2B1 B1B0"/>
    </vehicle>
    <vehicle id="bus2" type="bus_bus" depart="40.82" departLane="best" departSpeed="max">
        <route edges="C0C1 C1C2 C2C3 C3B3 B3B2 B2C2 C2C3 C3D3 D3E3"/>
    </vehicle>
    <vehicle id="bus3" type="bus_bus" depart="61.24" departLane="best" departSpeed="max">
        <route edges="E1D1 D1C1 C1B1 B1B2 B2C2 C2C1 C1D1 D1E1"/>
    </vehicle>
    <vehicle id="bus4" type="bus_bus" depart="81.65" departLane="best" departSpeed="max">
        <route edges="A3B3 B3C3 C3D3 D3D2 D2D1 D1C1 C1B1 B1B0"/>
    </vehicle>
    <vehicle id="bus5" type="bus_bus" depart="102.06" departLane="best" departSpeed="max">
        <route edges="B0B1 B1B2 B2C2 C2C3 C3B3 B3B2 B2C2 C2D2 D2D1 D1D0"/>
    </vehicle>
    <vehicle id="bus6" type="bus_bus" depart="122.47" departLane="best" departSpeed="max">
        <route edges="E2D2 D2D1 D1C1 C1B1 B1B2 B2C2 C2D2 D2D1 D1E1"/>
    </vehicle>
    <vehicle id="bus7" type="bus_bus" depart="142.89" departLane="best" departSpeed="max">
        <route edges="A1B1 B1B2 B2C2 C2D2 D2D1 D1C1 C1B1 B1B2 B2B3 B3B4"/>
    </vehicle>
    <vehicle id="bus8" type="bus_bus" depart="163.30" departLane="best" departSpeed="max">
        <route edges="E3D3 D3C3 C3B3 B3B2 B2C2 C2C3 C3D3 D3E3"/>
    </vehicle>
    <vehicle id="bus9" type="bus_bus" depart="183.71" departLane="best" departSpeed="max">
        <route edges="C0C1 C1C2 C2D2 D2D3 D3C3 C3C2 C2D2 D2D1 D1D0"/>
    </vehicle>
    <vehicle id="bus10" type="bus_bus" depart="204.12" departLane="best" departSpeed="max">
        <route edges="B4B3 B3C3 C3C2 C2C1 C1B1 B1B2 B2B3 B3B4"/>
    </vehicle>
    <vehicle id="bus11" type="bus_bus" depart="224.54" departLane="best" departSpeed="max">
        <route edges="E3D3 D3D2 D2C2 C2B2 B2B3 B3C3 C3D3 D3D2 D2E2"/>
    </vehicle>
    <vehicle id="bus12" type="bus_bus" depart="244.95" departLane="best" departSpeed="max">
        <route edges="B4B3 B3C3 C3C2 C2C1 C1B1 B1B2 B2C2 C2D2 D2E2"/>
    </vehicle>
    <vehicle id="bus13" type="bus_bus" depart="265.36" departLane="best" departSpeed="max">
        <route edges="B0B1 B1B2 B2C2 C2C3 C3B3 B3B2 B2C2 C2D2 D2E2"/>
    </vehicle>
    <vehicle id="bus14" type="bus_bus" depart="285.77" departLane="best" departSpeed="max">
        <route edges="A2B2 B2C2 C2C1 C1D1 D1D2 D2C2 C2C3 C3C4"/>
    </vehicle>
    <vehicle id="bus15" type="bus_bus" depart="306.19" departLane="best" departSpeed="max">
        <route edges="B0B1 B1B2 B2C2 C2C3 C3B3 B3B2 B2C2 C2D2 D2D1 D1D0"/>
    </vehicle>
    <vehicle id="bus16" type="bus_bus" depart="326.60" departLane="best" departSpeed="max">
        <route edges="D0D1 D1D2 D2D3 D3C3 C3C2 C2C1 C1C0"/>
    </vehicle>
    <vehicle id="bus17" type="bus_bus" depart="347.01" departLane="best" departSpeed="max">
        <route edges="D4D3 D3D2 D2C2 C2C1 C1D1 D1D2 D2D3 D3D4"/>
    </vehicle>
    <vehicle id="bus18" type="bus_bus" depart="367.42" departLane="best" departSpeed="max">
        <route edges="D4D3 D3D2 D2C2 C2B2 B2B1 B1C1 C1D1 D1E1"/>
    </vehicle>
    <vehicle id="bus19" type="bus_bus" depart="387.84" departLane="best" departSpeed="max">
        <route edges="A1B1 B1C1 C1D1 D1D2 D2C2 C2B2 B2B3 B3A3"/>
    </vehicle>
    <vehicle id="bus20" type="bus_bus" depart="408.25" departLane="best" departSpeed="max">
        <route edges="C0C1 C1B1 B1B2 B2B3 B3C3 C3D3 D3D2 D2E2"/>
    </vehicle>
    <vehicle id="bus21" type="bus_bus" depart="428.66" departLane="best" departSpeed="max">
        <route edges="D4D3 D3D2 D2D1 D1C1 C1B1 B1B2 B2B3 B3B4"/>
    </vehicle>
    <vehicle id="bus22" type="bus_bus" depart="449.07" departLane="best" departSpeed="max">
        <route edges="B4B3 B3B2 B2B1 B1C1 C1D1 D1D2 D2C2 C2C1 C1B1 B1A1"/>
    </vehicle>
    <vehicle id="bus23" type="bus_bus" depart="469.49" departLane="best" departSpeed="max">
        <route edges="E2D2 D2C2 C2C3 C3B3 B3B2 B2B1 B1B0"/>
    </vehicle>
    <vehicle id="bus24" type="bus_bus" depart="489.90" departLane="best" departSpeed="max">
        <route edges="C0C1 C1C2 C2D2 D2D3 D3C3 C3C2 C2C1 C1B1 B1A1"/>
    </vehicle>
    <vehicle id="bus25" type="bus_bus" depart="510.31" departLane="best" departSpeed="max">
        <route edges="A1B1 B1B2 B2C2 C2D2 D2D1 D1C1 C1C2 C2B2 B2A2"/>
    </vehicle>
    <vehicle id="bus26" type="bus_bus" depart="530.72" departLane="best" departSpeed="max">
        <route edges="A3B3 B3C3 C3C2 C2D2 D2D3 D3C3 C3B3 B3B2 B2B1 B1B0"/>
    </vehicle>
    <vehicle id="bus27" type="bus_bus" depart="551.13" departLane="best" departSpeed="max">
        <route edges="B4B3 B3B2 B2B1 B1C1 C1D1 D1D2 D2C2 C2C3 C3C4"/>
    </vehicle>
    <vehicle id="bus28" type="bus_bus" depart="571.55" departLane="best" departSpeed="max">
        <route edges="D0D1 D1C1 C1B1 B1B2 B2B3 B3C3 C3D3 D3D2 D2D1 D1D0"/>
    </vehicle>
    <vehicle id="bus29" type="bus_bus" depart="591.96" departLane="best" departSpeed="max">
        <route edges="B4B3 B3C3 C3C2 C2C1 C1B1 B1B2 B2C2 C2C1 C1D1 D1E1"/>
    </vehicle>
    <vehicle id="bus30" type="bus_bus" depart="612.37" departLane="best" departSpeed="max">
        <route edges="A2B2 B2C2 C2D2 D2D1 D1C1 C1B1 B1A1"/>
    </vehicle>
    <vehicle id="bus31" type="bus_bus" depart="632.78" departLane="best" departSpeed="max">
        <route edges="D4D3 D3D2 D2D1 D1C1 C1B1 B1B2 B2B3 B3B4"/>
    </vehicle>
    <vehicle id="bus32" type="bus_bus" depart="653.20" departLane="best" departSpeed="max">
        <route edges="C4C3 C3C2 C2C1 C1D1 D1D2 D2C2 C2C1 C1B1 B1A1"/>
    </vehicle>
    <vehicle id="bus33" type="bus_bus" depart="673.61" departLane="best" departSpeed="max">
        <route edges="A2B2 B2C2 C2C1 C1D1 D1D2 D2C2 C2B2 B2B3 B3B4"/>
    </vehicle>
    <vehicle id="bus34" type="bus_bus" depart="694.02" departLane="best" departSpeed="max">
        <route edges="A3B3 B3C3 C3C2 C2C1 C1D1 D1D2 D2C2 C2C1 C1B1 B1A1"/>
    </vehicle>
    <vehicle id="bus35" type="bus_bus" depart="714.43" departLane="best" departSpeed="max">
        <route edges="A2B2 B2B3 B3C3 C3D3 D3D2 D2D1 D1D0"/>
    </vehicle>
    <vehicle id="bus36" type="bus_bus" depart="734.85" departLane="best" departSpeed="max">
        <route edges="B0B1 B1B2 B2B3 B3C3 C3D3 D3D2 D2D1 D1C1 C1C0"/>
    </vehicle>
    <vehicle id="bus37" type="bus_bus" depart="755.26" departLane="best" departSpeed="max">
        <route edges="A3B3 B3C3 C3C2 C2D2 D2D3 D3C3 C3C2 C2B2 B2A2"/>
    </vehicle>
    <vehicle id="bus38" type="bus_bus" depart="775.67" departLane="best" departSpeed="max">
        <route edges="D0D1 D1C1 C1B1 B1B2 B2B3 B3C3 C3D3 D3E3"/>
    </vehicle>
    <vehicle id="bus39" type="bus_bus" depart="796.08" departLane="best" departSpeed="max">
        <route edges="B4B3 B3B2 B2B1 B1C1 C1D1 D1D2 D2C2 C2C3 C3C4"/>
    </vehicle>
    <vehicle id="bus40" type="bus_bus" depart="816.50" departLane="best" departSpeed="max">
        <route edges="D4D3 D3D2 D2D1 D1C1 C1B1 B1B2 B2B3 B3C3 C3C4"/>
    </vehicle>
    <vehicle id="bus41" type="bus_bus" depart="836.91" departLane="best" departSpeed="max">
        <route edges="E3D3 D3D2 D2C2 C2B2 B2B3 B3C3 C3D3 D3E3"/>
    </vehicle>
    <vehicle id="bus42" type="bus_bus" depart="857.32" departLane="best" departSpeed="max">
        <route edges="D0D1 D1C1 C1C2 C2C3 C3D3 D3D2 D2D1 D1C1 C1B1 B1B0"/>
    </vehicle>
    <vehicle id="bus43" type="bus_bus" depart="877.73" departLane="best" departSpeed="max">
        <route edges="C4C3 C3C2 C2C1 C1D1 D1D2 D2C2 C2C3 C3C4"/>
    </vehicle>
    <vehicle id="bus44" type="bus_bus" depart="898.15" departLane="best" departSpeed="max">
        <route edges="B0B1 B1B2 B2C2 C2C3 C3B3 B3B2 B2B1 B1C1 C1D1 D1E1"/>
    </vehicle>
    <vehicle id="bus45" type="bus_bus" depart="918.56" departLane="best" departSpeed="max">
        <route edges="D4D3 D3D2 D2D1 D1C1 C1C2 C2C3 C3C4"/>
    </vehicle>
    <vehicle id="bus46" type="bus_bus" depart="938.97" departLane="best" departSpeed="max">
        <route edges="E1D1 D1C1 C1C2 C2B2 B2B1 B1C1 C1D1 D1E1"/>
    </vehicle>
    <vehicle id="bus47" type="bus_bus" depart="959.38" departLane="best" departSpeed="max">
        <route edges="B0B1 B1B2 B2B3 B3C3 C3D3 D3D2 D2D1 D1D0"/>
    </vehicle>
    <vehicle id="bus48" type="bus_bus" depart="979.80" departLane="best" departSpeed="max">
        <route edges="E3D3 D3D2 D2D1 D1C1 C1B1 B1B2 B2B3 B3C3 C3D3 D3D4"/>
    </vehicle>
    <vehicle id="bus49" type="bus_bus" depart="1000.21" departLane="best" departSpeed="max">
        <route edges="E3D3 D3C3 C3B3 B3B2 B2B1 B1C1 C1C2 C2C3 C3D3 D3E3"/>
    </vehicle>
    <vehicle id="bus50" type="bus_bus" depart="1020.62" departLane="best" departSpeed="max">
        <route edges="B4B3 B3B2 B2B1 B1C1 C1D1 D1D2 D2C2 C2C3 C3C4"/>
    </vehicle>
    <vehicle id="bus51" type="bus_bus" depart="1041.03" departLane="best" departSpeed="max">
        <route edges="A3B3 B3C3 C3D3 D3D2 D2C2 C2B2 B2A2"/>
    </vehicle>
    <vehicle id="bus52" type="bus_bus" depart="1061.45" departLane="best" departSpeed="max">
        <route edges="E1D1 D1C1 C1C2 C2C3 C3B3 B3B2 B2B1 B1C1 C1D1 D1E1"/>
    </vehicle>
    <vehicle id="bus53" type="bus_bus" depart="1081.86" departLane="best" departSpeed="max">
        <route edges="B4B3 B3B2 B2B1 B1C1 C1D1 D1D2 D2C2 C2C3 C3C4"/>
    </vehicle>
    <vehicle id="bus54" type="bus_bus" depart="1102.27" departLane="best" departSpeed="max">
        <route edges="E3D3 D3C3 C3B3 B3B2 B2C2 C2D2 D2D1 D1D0"/>
    </vehicle>
    <vehicle id="bus55" type="bus_bus" depart="1122.68" departLane="best" departSpeed="max">
        <route edges="D4D3 D3D2 D2C2 C2B2 B2B1 B1C1 C1C2 C2C3 C3D3 D3E3"/>
    </vehicle>
    <vehicle id="bus56" type="bus_bus" depart="1143.09" departLane="best" departSpeed="max">
        <route edges="D4D3 D3D2 D2D1 D1C1 C1C2 C2C3 C3D3 D3D4"/>
    </vehicle>
    <vehicle id="bus57" type="bus_bus" depart="1163.51" departLane="best" departSpeed="max">
        <route edges="A2B2 B2C2 C2D2 D2D1 D1C1 C1C2 C2B2 B2A2"/>
    </vehicle>
    <vehicle id="bus58" type="bus_bus" depart="1183.92" departLane="best" departSpeed="max">
        <route edges="D0D1 D1C1 C1C2 C2C3 C3D3 D3D2 D2D1 D1D0"/>
    </vehicle>
    <vehicle id="bus59" type="bus_bus" depart="1204.33" departLane="best" departSpeed="max">
        <route edges="E1D1 D1C1 C1C2 C2C3 C3B3 B3B2 B2B1 B1C1 C1D1 D1E1"/>
    </vehicle>
    <vehicle id="bus60" type="bus_bus" depart="1224.74" departLane="best" departSpeed="max">
        <route edges="E2D2 D2C2 C2B2 B2B3 B3C3 C3D3 D3D2 D2D1 D1D0"/>
    </vehicle>
    <vehicle id="bus61" type="bus_bus" depart="1245.16" departLane="best">
        <route edges="D1D2 D2D3 D3C3 C3B3 B3B2 B2C2 C2D2 D2D1 D1D0"/>
    </vehicle>
    <vehicle id="bus62" type="bus_bus" depart="1265.57" departLane="best" departSpeed="max">
        <route edges="C0C1 C1C2 C2C3 C3D3 D3D2 D2D1 D1C1 C1B1 B1B0"/>
    </vehicle>
    <vehicle id="bus63" type="bus_bus" depart="1285.98" departLane="best" departSpeed="max">
        <route edges="D4D3 D3D2 D2D1 D1C1 C1B1 B1B2 B2A2"/>
    </vehicle>
    <vehicle id="bus64" type="bus_bus" depart="1306.39" departLane="best" departSpeed="max">
        <route edges="A3B3 B3C3 C3C2 C2C1 C1D1 D1D2 D2D3 D3C3 C3B3 B3A3"/>
    </vehicle>
    <vehicle id="bus65" type="bus_bus" depart="1326.81" departLane="best" departSpeed="max">
        <route edges="E1D1 D1C1 C1C2 C2C3 C3B3 B3B2 B2B1 B1C1 C1D1"/>
    </vehicle>
    <vehicle id="bus66" type="bus_bus" depart="1347.22" departLane="best" departSpeed="max">
        <route edges="E2D2 D2D1 D1C1 C1B1 B1B2 B2C2 C2D2 D2E2"/>
    </vehicle>
    <vehicle id="bus67" type="bus_bus" depart="1367.63" departLane="best" departSpeed="max">
        <route edges="D0D1 D1C1 C1B1 B1B2 B2B3 B3C3 C3D3 D3E3"/>
    </vehicle>
    <vehicle id="bus68" type="bus_bus" depart="1388.04" departLane="best" departSpeed="max">
        <route edges="D0D1 D1C1 C1B1 B1B2 B2B3 B3C3 C3D3 D3D2 D2E2"/>
    </vehicle>
    <vehicle id="bus69" type="bus_bus" depart="1408.46" departLane="best" departSpeed="max">
        <route edges="E2D2 D2C2 C2B2 B2B1 B1C1 C1C2 C2C3 C3D3 D3E3"/>
    </vehicle>
    <vehicle id="bus70" type="bus_bus" depart="1428.87" departLane="best" departSpeed="max">
        <route edges="B4B3 B3C3 C3C2 C2C1 C1B1 B1B2 B2B3 B3C3 C3C4"/>
    </vehicle>
    <vehicle id="bus71" type="bus_bus" depart="1449.28" departLane="best" departSpeed="max">
        <route edges="E2D2 D2C2 C2B2 B2B3 B3C3 C3D3 D3D2 D2D1 D1E1"/>
    </vehicle>
    <vehicle id="bus72" type="bus_bus" depart="1469.69" departLane="best" departSpeed="max">
        <route edges="B0B1 B1B2 B2B3 B3C3 C3D3 D3D2 D2C2 C2B2 B2A2"/>
    </vehicle>
    <vehicle id="bus73" type="bus_bus" depart="1490.11" departLane="best" departSpeed="max">
        <route edges="E2D2 D2C2 C2B2 B2B1 B1C1 C1D1 D1E1"/>
    </vehicle>
    <vehicle id="bus74" type="bus_bus" depart="1510.52" departLane="best" departSpeed="max">
        <route edges="A3B3 B3C3 C3C2 C2D2 D2D3 D3C3 C3C2 C2B2 B2A2"/>
    </vehicle>
    <vehicle id="bus75" type="bus_bus" depart="1530.93" departLane="best" departSpeed="max">
        <route edges="B0B1 B1B2 B2B3 B3C3 C3C2 C2B2 B2B1 B1B0"/>
    </vehicle>
    <vehicle id="bus76" type="bus_bus" depart="1551.34" departLane="best" departSpeed="max">
        <route edges="A3B3 B3C3 C3C2 C2C1 C1D1 D1D2 D2C2 C2B2 B2A2"/>
    </vehicle>
    <vehicle id="bus77" type="bus_bus" depart="1571.76" departLane="best" departSpeed="max">
        <route edges="B0B1 B1B2 B2C2 C2C3 C3B3 B3B2 B2C2 C2D2 D2E2"/>
    </vehicle>
    <vehicle id="bus78" type="bus_bus" depart="1592.17" departLane="best" departSpeed="max">
        <route edges="D0D1 D1C1 C1B1 B1B2 B2B3 B3C3 C3C2 C2C1 C1C0"/>
    </vehicle>
    <vehicle id="bus79" type="bus_bus" depart="1612.58" departLane="best" departSpeed="max">
        <route edges="A2B2 B2B3 B3C3 C3D3 D3D2 D2D1 D1D0"/>
    </vehicle>
    <vehicle id="bus80" type="bus_bus" depart="1632.99" departLane="best" departSpeed="max">
        <route edges="E1D1 D1C1 C1B1 B1B2 B2B3 B3C3 C3D3 D3D2 D2D1 D1E1"/>
    </vehicle>
    <vehicle id="bus81" type="bus_bus" depart="1653.40" departLane="best" departSpeed="max">
        <route edges="E3D3 D3D2 D2C2 C2B2 B2B3 B3C3 C3C2 C2C1 C1C0"/>
    </vehicle>
    <vehicle id="bus82" type="bus_bus" depart="1673.82" departLane="best">
        <route edges="B3B2 B2B1 B1C1 C1D1 D1D2 D2C2 C2B2 B2B3 B3B4"/>
    </vehicle>
    <vehicle id="bus83" type="bus_bus" depart="1694.23" departLane="best" departSpeed="max">
        <route edges="E3D3 D3C3 C3B3 B3B2 B2B1 B1C1 C1D1 D1D2 D2D3 D3D4"/>
    </vehicle>
    <vehicle id="bus84" type="bus_bus" depart="1714.64" departLane="best" departSpeed="max">
        <route edges="A1B1 B1B2 B2B3 B3C3 C3D3 D3D2 D2D1 D1D0"/>
    </vehicle>
    <vehicle id="bus85" type="bus_bus" depart="1735.05" departLane="best" departSpeed="max">
        <route edges="B0B1 B1B2 B2B3 B3C3 C3D3 D3D2 D2C2 C2C3 C3B3 B3A3"/>
    </vehicle>
    <vehicle id="bus86" type="bus_bus" depart="1755.47" departLane="best" departSpeed="max">
        <route edges="A2B2 B2B3 B3C3 C3D3 D3D2 D2C2 C2B2 B2A2"/>
    </vehicle>
    <vehicle id="bus87" type="bus_bus" depart="1775.88" departLane="best" departSpeed="max">
        <route edges="C0C1 C1C2 C2C3 C3D3 D3D2 D2C2 C2C3 C3B3 B3A3"/>
    </vehicle>
    <vehicle id="bus88" type="bus_bus" depart="1796.29" departLane="best" departSpeed="max">
        <route edges="A3B3 B3C3 C3C2 C2D2 D2D3 D3C3 C3B3 B3B2 B2B1 B1B0"/>
    </vehicle>
    <vehicle id="bus89" type="bus_bus" depart="1816.70" departLane="best" departSpeed="max">
        <route edges="B4B3 B3C3 C3D3 D3D2 D2D1 D1C1 C1B1 B1B2 B2A2"/>
    </vehicle>
    <vehicle id="bus90" type="bus_bus" depart="1837.12" departLane="best" departSpeed="max">
        <route edges="D0D1 D1C1 C1C2 C2C3 C3D3 D3D2 D2D1 D1D0"/>
    </vehicle>
    <vehicle id="bus91" type="bus_bus" depart="1857.53" departLane="best" departSpeed="max">
        <route edges="E3D3 D3C3 C3B3 B3B2 B2C2 C2C3 C3D3 D3E3"/>
    </vehicle>
    <vehicle id="bus92" type="bus_bus" depart="1877.94" departLane="best" departSpeed="max">
        <route edges="A2B2 B2C2 C2D2 D2D3 D3C3 C3B3 B3B2 B2B1 B1B0"/>
    </vehicle>
    <vehicle id="bus93" type="bus_bus" depart="1898.35" departLane="best" departSpeed="max">
        <route edges="C4C3 C3C2 C2C1 C1B1 B1B2 B2C2 C2C3 C3C4"/>
    </vehicle>
    <vehicle id="bus94" type="bus_bus" depart="1918.77" departLane="best" departSpeed="max">
        <route edges="C4C3 C3D3 D3D2 D2D1 D1C1 C1C2 C2B2 B2B3 B3B4"/>
    </vehicle>
    <vehicle id="bus95" type="bus_bus" depart="1939.18" departLane="best" departSpeed="max">
        <route edges="E1D1 D1C1 C1B1 B1B2 B2B3 B3C3 C3D3 D3D2 D2D1 D1E1"/>
    </vehicle>
    <vehicle id="bus96" type="bus_bus" depart="1959.59" departLane="best" departSpeed="max">
        <route edges="C4C3 C3C2 C2C1 C1D1 D1D2 D2C2 C2C3 C3C4"/>
    </vehicle>
    <vehicle id="bus97" type="bus_bus" depart="1980.00" departLane="best" departSpeed="max">
        <route edges="A3B3 B3C3 C3D3 D3D2 D2D1 D1C1 C1B1 B1A1"/>
    </vehicle>
    <vehicle id="bus98" type="bus_bus" depart="2000.42" departLane="best" departSpeed="max">
        <route edges="D4D3 D3D2 D2C2 C2C1 C1D1 D1D2 D2C2 C2C3 C3C4"/>
    </vehicle>
    <vehicle id="bus99" type="bus_bus" depart="2020.83" departLane="best" departSpeed="max">
        <route edges="A1B1 B1C1 C1D1 D1D2 D2C2 C2B2 B2B3 B3A3"/>
    </vehicle>
    <vehicle id="bus100" type="bus_bus" depart="2041.24" departLane="best" departSpeed="max">
        <route edges="A2B2 B2C2 C2D2 D2D3 D3C3 C3C2 C2D2 D2D1 D1D0"/>
    </vehicle>
    <vehicle id="bus101" type="bus_bus" depart="2061.65" departLane="best" departSpeed="max">
        <route edges="A3B3 B3C3 C3D3 D3D2 D2C2 C2B2 B2A2"/>
    </vehicle>
    <vehicle id="bus102" type="bus_bus" depart="2082.07" departLane="best" departSpeed="max">
        <route edges="C0C1 C1C2 C2C3 C3D3 D3D2 D2D1 D1C1 C1B1 B1B0"/>
    </vehicle>
    <vehicle id="bus103" type="bus_bus" depart="2102.48" departLane="best" departSpeed="max">
        <route edges="D0D1 D1C1 C1B1 B1B2 B2B3 B3C3 C3C2 C2C1 C1C0"/>
    </vehicle>
    <vehicle id="bus104" type="bus_bus" depart="2122.89" departLane="best" departSpeed="max">
        <route edges="A3B3 B3C3 C3C2 C2C1 C1D1 D1D2 D2D3 D3C3 C3B3 B3A3"/>
    </vehicle>
    <vehicle id="bus105" type="bus_bus" depart="2143.30" departLane="best" departSpeed="max">
        <route edges="A3B3 B3C3 C3C2 C2C1 C1D1 D1D2 D2C2 C2C1 C1B1 B1A1"/>
    </vehicle>
    <vehicle id="bus106" type="bus_bus" depart="2163.71" departLane="best" departSpeed="max">
        <route edges="E2D2 D2C2 C2B2 B2B1 B1C1 C1C2 C2D2 D2E2"/>
    </vehicle>
    <vehicle id="bus107" type="bus_bus" depart="2184.13" departLane="best" departSpeed="max">
        <route edges="E3D3 D3C3 C3B3 B3B2 B2B1 B1C1 C1D1 D1E1"/>
    </vehicle>
    <vehicle id="bus108" type="bus_bus" depart="2204.54" departLane="best" departSpeed="max">
        <route edges="A3B3 B3C3 C3D3 D3D2 D2D1 D1C1 C1C0"/>
    </vehicle>
    <vehicle id="bus109" type="bus_bus" depart="2224.95" departLane="best" departSpeed="max">
        <route edges="E2D2 D2C2 C2B2 B2B3 B3C3 C3D3 D3E3"/>
    </vehicle>
    <vehicle id="bus110" type="bus_bus" depart="2245.36" departLane="best" departSpeed="max">
        <route edges="A1B1 B1C1 C1D1 D1D2 D2C2 C2B2 B2B3 B3B4"/>
    </vehicle>
    <vehicle id="bus111" type="bus_bus" depart="2265.78" departLane="best" departSpeed="max">
        <route edges="E1D1 D1C1 C1C2 C2C3 C3B3 B3B2 B2C2 C2D2 D2D1 D1D0"/>
    </vehicle>
    <vehicle id="bus112" type="bus_bus" depart="2286.19" departLane="best" departSpeed="max">
        <route edges="C4C3 C3D3 D3D2 D2D1 D1C1 C1B1 B1B2 B2B3 B3A3"/>
    </vehicle>
    <vehicle id="bus113" type="bus_bus" depart="2306.60" departLane="best" departSpeed="max">
        <route edges="A2B2 B2C2 C2C1 C1D1 D1D2 D2C2 C2B2 B2B3 B3B4"/>
    </vehicle>
    <vehicle id="bus114" type="bus_bus" depart="2327.01" departLane="best" departSpeed="max">
        <route edges="C0C1 C1B1 B1B2 B2B3 B3C3 C3D3 D3D2 D2E2"/>
    </vehicle>
    <vehicle id="bus115" type="bus_bus" depart="2347.43" departLane="best" departSpeed="max">
        <route edges="D0D1 D1D2 D2D3 D3C3 C3B3 B3B2 B2C2 C2C3 C3D3 D3E3"/>
    </vehicle>
    <vehicle id="bus116" type="bus_bus" depart="2367.84" departLane="best" departSpeed="max">
        <route edges="A1B1 B1C1 C1D1 D1D2 D2C2 C2C1 C1B1 B1A1"/>
    </vehicle>
    <vehicle id="bus117" type="bus_bus" depart="2388.25" departLane="best" departSpeed="max">
        <route edges="C4C3 C3D3 D3D2 D2D1 D1C1 C1C2 C2C3 C3C4"/>
    </vehicle>
    <vehicle id="bus118" type="bus_bus" depart="2408.66" departLane="best" departSpeed="max">
        <route edges="C4C3 C3D3 D3D2 D2D1 D1C1 C1B1 B1B2 B2A2"/>
    </vehicle>
    <vehicle id="bus119" type="bus_bus" depart="2429.08" departLane="best" departSpeed="max">
        <route edges="A3B3 B3C3 C3D3 D3D2 D2D1 D1C1 C1C2 C2B2 B2A2"/>
    </vehicle>
    <vehicle id="bus120" type="bus_bus" depart="2449.49" departLane="best" departSpeed="max">
        <route edges="C4C3 C3C2 C2C1 C1D1 D1D2 D2C2 C2B2 B2A2"/>
    </vehicle>
    <vehicle id="bus121" type="bus_bus" depart="2469.90" departLane="best">
        <route edges="B3B2 B2C2 C2D2 D2D1 D1C1 C1B1 B1B2 B2B3 B3B4"/>
    </vehicle>
    <vehicle id="bus122" type="bus_bus" depart="2490.31" departLane="best" departSpeed="max">
        <route edges="C4C3 C3C2 C2C1 C1D1 D1D2 D2C2 C2C3 C3C4"/>
    </vehicle>
    <vehicle id="bus123" type="bus_bus" depart="2510.73" departLane="best" departSpeed="max">
        <route edges="C4C3 C3C2 C2C1 C1B1 B1B2 B2B3 B3C3 C3D3 D3D4"/>
    </vehicle>
    <vehicle id="bus124" type="bus_bus" depart="2531.14" departLane="best" departSpeed="max">
        <route edges="A3B3 B3C3 C3C2 C2D2 D2D3 D3C3 C3B3 B3B2 B2B1 B1B0"/>
    </vehicle>
    <vehicle id="bus125" type="bus_bus" depart="2551.55" departLane="best" departSpeed="max">
        <route edges="A3B3 B3C3 C3D3 D3D2 D2D1 D1D0"/>
    </vehicle>
    <vehicle id="bus126" type="bus_bus" depart="2571.96" departLane="best" departSpeed="max">
        <route edges="D0D1 D1C1 C1B1 B1B2 B2B3 B3C3 C3C2 C2B2 B2B1 B1B0"/>
    </vehicle>
    <vehicle id="bus127" type="bus_bus" depart="2592.38" departLane="best" departSpeed="max">
        <route edges="E1D1 D1C1 C1B1 B1B2 B2B3 B3C3 C3D3 D3D4"/>
    </vehicle>
    <vehicle id="bus128" type="bus_bus" depart="2612.79" departLane="best" departSpeed="max">
        <route edges="D0D1 D1D2 D2D3 D3C3 C3C2 C2C1 C1C0"/>
    </vehicle>
    <vehicle id="bus129" type="bus_bus" depart="2633.20" departLane="best" departSpeed="max">
        <route edges="D0D1 D1D2 D2D3 D3C3 C3B3 B3A3"/>
    </vehicle>
    <vehicle id="bus130" type="bus_bus" depart="2653.61" departLane="best" departSpeed="max">
        <route edges="D4D3 D3D2 D2C2 C2C1 C1D1 D1D2 D2C2 C2B2 B2B3 B3B4"/>
    </vehicle>
    <vehicle id="bus131" type="bus_bus" depart="2674.03" departLane="best" departSpeed="max">
        <route edges="A2B2 B2C2 C2D2 D2D3 D3C3 C3B3 B3A3"/>
    </vehicle>
    <vehicle id="bus132" type="bus_bus" depart="2694.44" departLane="best" departSpeed="max">
        <route edges="A3B3 B3C3 C3C2 C2C1 C1D1 D1D2 D2C2 C2B2 B2B3"/>
    </vehicle>
    <vehicle id="bus133" type="bus_bus" depart="2714.85" departLane="best" departSpeed="max">
        <route edges="C4C3 C3C2 C2C1 C1D1 D1D2 D2C2 C2C1 C1B1 B1A1"/>
    </vehicle>
    <vehicle id="bus134" type="bus_bus" depart="2735.26" departLane="best" departSpeed="max">
        <route edges="A1B1 B1B2 B2B3 B3C3 C3D3 D3D2 D2D1 D1C1 C1B1 B1A1"/>
    </vehicle>
    <vehicle id="bus135" type="bus_bus" depart="2755.67" departLane="best" departSpeed="max">
        <route edges="C0C1 C1B1 B1B2 B2B3 B3C3 C3D3 D3E3"/>
    </vehicle>
    <vehicle id="bus136" type="bus_bus" depart="2776.09" departLane="best" departSpeed="max">
        <route edges="A1B1 B1C1 C1D1 D1D2 D2D3 D3C3 C3C2 C2D2 D2D1 D1D0"/>
    </vehicle>
    <vehicle id="bus137" type="bus_bus" depart="2796.50" departLane="best" departSpeed="max">
        <route edges="B0B1 B1B2 B2B3 B3C3 C3D3 D3D2 D2C2 C2C3 C3B3 B3A3"/>
    </vehicle>
    <vehicle id="bus138" type="bus_bus" depart="2816.91" departLane="best" departSpeed="max">
        <route edges="E2D2 D2C2 C2B2 B2B3 B3C3 C3D3 D3E3"/>
    </vehicle>
    <vehicle id="bus139" type="bus_bus" depart="2837.32" departLane="best" departSpeed="max">
        <route edges="C4C3 C3C2 C2C1 C1B1 B1B2 B2B3 B3B4"/>
    </vehicle>
    <vehicle id="bus140" type="bus_bus" depart="2857.74" departLane="best" departSpeed="max">
        <route edges="E1D1 D1C1 C1C2 C2B2 B2B1 B1C1 C1D1 D1E1"/>
    </vehicle>
    <vehicle id="bus141" type="bus_bus" depart="2878.15" departLane="best" departSpeed="max">
        <route edges="C4C3 C3C2 C2C1 C1D1 D1D2 D2C2 C2B2 B2B3 B3B4"/>
    </vehicle>
    <vehicle id="bus142" type="bus_bus" depart="2898.56" departLane="best" departSpeed="max">
        <route edges="E3D3 D3C3 C3B3 B3B2 B2B1 B1C1 C1C2 C2C3 C3D3 D3E3"/>
    </vehicle>
    <vehicle id="bus143" type="bus_bus" depart="2918.97" departLane="best" departSpeed="max">
        <route edges="D0D1 D1D2 D2D3 D3C3 C3C2 C2D2 D2D1 D1D0"/>
    </vehicle>
    <vehicle id="bus144" type="bus_bus" depart="2939.39" departLane="best">
        <route edges="D3C3 C3C2 C2C1 C1B1 B1B2 B2B3 B3C3 C3D3 D3D4"/>
    </vehicle>
    <vehicle id="bus145" type="bus_bus" depart="2959.80" departLane="best" departSpeed="max">
        <route edges="B4B3 B3C3 C3C2 C2C1 C1B1 B1B2 B2B3 B3B4"/>
    </vehicle>
    <vehicle id="bus146" type="bus_bus" depart="2980.21" departLane="best" departSpeed="max">
        <route edges="A1B1 B1B2 B2B3 B3C3 C3D3 D3D2 D2D1 D1C1 C1C0"/>
    </vehicle>
    <vehicle id="bus147" type="bus_bus" depart="3000.62" departLane="best" departSpeed="max">
        <route edges="D4D3 D3D2 D2D1 D1C1 C1B1 B1B2 B2C2 C2C3 C3C4"/>
    </vehicle>
    <vehicle id="bus148" type="bus_bus" depart="3021.04" departLane="best" departSpeed="max">
        <route edges="D4D3 D3D2 D2D1 D1C1 C1B1 B1B2 B2B3 B3C3 C3D3 D3E3"/>
    </vehicle>
    <vehicle id="bus149" type="bus_bus" depart="3041.45" departLane="best" departSpeed="max">
        <route edges="E3D3 D3D2 D2C2 C2B2 B2B3 B3C3 C3C2 C2B2 B2B1 B1B0"/>
    </vehicle>
    <vehicle id="bus150" type="bus_bus" depart="3061.86" departLane="best" departSpeed="max">
        <route edges="E2D2 D2C2 C2C3 C3B3 B3B2 B2C2 C2C3 C3D3 D3E3"/>
    </vehicle>
    <vehicle id="bus151" type="bus_bus" depart="3082.27" departLane="best" departSpeed="max">
        <route edges="C0C1 C1B1 B1B2 B2B3 B3C3 C3C2 C2B2 B2B1 B1B0"/>
    </vehicle>
    <vehicle id="bus152" type="bus_bus" depart="3102.69" departLane="best" departSpeed="max">
        <route edges="E3D3 D3D2 D2C2 C2B2 B2B3 B3C3 C3D3 D3D2 D2D1 D1D0"/>
    </vehicle>
    <vehicle id="bus153" type="bus_bus" depart="3123.10" departLane="best" departSpeed="max">
        <route edges="C4C3 C3D3 D3D2 D2D1 D1C1 C1B1 B1A1"/>
    </vehicle>
    <vehicle id="bus154" type="bus_bus" depart="3143.51" departLane="best" departSpeed="max">
        <route edges="E2D2 D2D1 D1C1 C1B1 B1B2 B2B3 B3B4"/>
    </vehicle>
    <vehicle id="bus155" type="bus_bus" depart="3163.92" departLane="best" departSpeed="max">
        <route edges="A2B2 B2C2 C2D2 D2D1 D1C1 C1C2 C2B2 B2A2"/>
    </vehicle>
    <vehicle id="bus156" type="bus_bus" depart="3184.34" departLane="best" departSpeed="max">
        <route edges="C4C3 C3C2 C2C1 C1B1 B1B2 B2B3 B3C3 C3D3 D3E3"/>
    </vehicle>
    <vehicle id="bus157" type="bus_bus" depart="3204.75" departLane="best" departSpeed="max">
        <route edges="E1D1 D1C1 C1C2 C2B2 B2B1 B1C1 C1C2 C2D2 D2E2"/>
    </vehicle>
    <vehicle id="bus158" type="bus_bus" depart="3225.16" departLane="best" departSpeed="max">
        <route edges="A3B3 B3C3 C3C2 C2C1 C1D1 D1D2 D2D3 D3C3 C3B3 B3A3"/>
    </vehicle>
    <vehicle id="bus159" type="bus_bus" depart="3245.57" departLane="best" departSpeed="max">
        <route edges="D0D1 D1C1 C1C2 C2C3 C3D3 D3D2 D2C2 C2C1 C1C0"/>
    </vehicle>
    <vehicle id="bus160" type="bus_bus" depart="3265.98" departLane="best" departSpeed="max">
        <route edges="E1D1 D1C1 C1C2 C2C3 C3B3 B3B2 B2C2 C2D2 D2D1 D1D0"/>
    </vehicle>
    <vehicle id="bus161" type="bus_bus" depart="3286.40" departLane="best" departSpeed="max">
        <route edges="D0D1 D1C1 C1B1 B1B2 B2B3 B3C3 C3D3 D3D2 D2D1 D1E1"/>
    </vehicle>
    <vehicle id="bus162" type="bus_bus" depart="3306.81" departLane="best" departSpeed="max">
        <route edges="B4B3 B3B2 B2B1 B1C1 C1D1 D1D2 D2C2 C2B2 B2B3 B3B4"/>
    </vehicle>
    <vehicle id="bus163" type="bus_bus" depart="3327.22" departLane="best" departSpeed="max">
        <route edges="C0C1 C1C2 C2C3 C3B3 B3B2 B2C2 C2D2 D2E2"/>
    </vehicle>
    <vehicle id="bus164" type="bus_bus" depart="3347.63" departLane="best" departSpeed="max">
        <route edges="C4C3 C3C2 C2B2 B2B1 B1C1 C1D1 D1D2 D2D3 D3D4"/>
    </vehicle>