<?xml version="1.0" encoding="UTF-8"?>

<!-- generated on Thu Jun  4 00:42:50 2020 by Eclipse SUMO duarouter Version 1.6.0
<configuration xmlns:xsi="http://www.w3.org/2001/XMLSchema-instance" xsi:noNamespaceSchemaLocation="http://sumo.dlr.de/xsd/duarouterConfiguration.xsd">

    <input>
        <net-file value="optimal.net.xml"/>
        <route-files value="optimal.passenger.trips.xml"/>
    </input>

    <output>
        <output-file value="optimal.passenger.rou.xml"/>
        <alternatives-output value="optimal.passenger.rou.alt.xml"/>
    </output>

    <time>
        <begin value="0"/>
        <end value="1800.0"/>
    </time>

    <report>
        <no-warnings value="true"/>
        <ignore-errors value="true"/>
        <no-step-log value="true"/>
    </report>

</configuration>
-->

<routes xmlns:xsi="http://www.w3.org/2001/XMLSchema-instance" xsi:noNamespaceSchemaLocation="http://sumo.dlr.de/xsd/routes_file.xsd">
    <vType id="veh_passenger" vClass="passenger"/>
    <vehicle id="veh0" type="veh_passenger" depart="0.00" departLane="best" departSpeed="max">
        <route edges="D0D1 D1C1 C1B1 B1A1"/>
    </vehicle>
    <vehicle id="veh1" type="veh_passenger" depart="4.50" departLane="best" departSpeed="max">
        <route edges="E2D2 D2C2 C2B2 B2B1 B1B0"/>
    </vehicle>
    <vehicle id="veh2" type="veh_passenger" depart="9.00" departLane="best" departSpeed="max">
        <route edges="B0B1 B1B2 B2C2 C2C3"/>
    </vehicle>
    <vehicle id="veh3" type="veh_passenger" depart="13.50" departLane="best" departSpeed="max">
        <route edges="B0B1 B1B2 B2C2 C2C3 C3C4"/>
    </vehicle>
    <vehicle id="veh4" type="veh_passenger" depart="18.00" departLane="best" departSpeed="max">
        <route edges="D4D3 D3D2 D2D1 D1C1 C1B1 B1A1"/>
    </vehicle>
    <vehicle id="veh5" type="veh_passenger" depart="22.50" departLane="best" departSpeed="max">
        <route edges="E3D3 D3C3 C3B3 B3B4"/>
    </vehicle>
    <vehicle id="veh6" type="veh_passenger" depart="27.00" departLane="best" departSpeed="max">
        <route edges="E1D1 D1C1 C1C2 C2C3 C3C4"/>
    </vehicle>
    <vehicle id="veh7" type="veh_passenger" depart="31.50" departLane="best" departSpeed="max">
        <route edges="D4D3 D3D2 D2D1 D1E1"/>
    </vehicle>
    <vehicle id="veh8" type="veh_passenger" depart="36.00" departLane="best" departSpeed="max">
        <route edges="E1D1 D1C1 C1C2 C2C3 C3C4"/>
    </vehicle>
    <vehicle id="veh9" type="veh_passenger" depart="40.50" departLane="best">
        <route edges="D2C2 C2C1 C1B1 B1A1"/>
    </vehicle>
    <vehicle id="veh10" type="veh_passenger" depart="45.00" departLane="best" departSpeed="max">
        <route edges="B0B1 B1B2 B2B3 B3A3"/>
    </vehicle>
    <vehicle id="veh11" type="veh_passenger" depart="49.50" departLane="best" departSpeed="max">
        <route edges="D0D1 D1C1 C1B1 B1B2 B2B3 B3B4"/>
    </vehicle>
    <vehicle id="veh12" type="veh_passenger" depart="54.00" departLane="best" departSpeed="max">
        <route edges="B4B3 B3B2 B2B1"/>
    </vehicle>
    <vehicle id="veh13" type="veh_passenger" depart="58.50" departLane="best" departSpeed="max">
        <route edges="D0D1 D1C1 C1C2 C2C3 C3D3"/>
    </vehicle>
    <vehicle id="veh14" type="veh_passenger" depart="63.00" departLane="best" departSpeed="max">
        <route edges="A3B3 B3C3 C3C2 C2C1 C1D1 D1E1"/>
    </vehicle>
    <vehicle id="veh15" type="veh_passenger" depart="67.50" departLane="best" departSpeed="max">
        <route edges="E3D3 D3D2 D2D1 D1D0"/>
    </vehicle>
    <vehicle id="veh16" type="veh_passenger" depart="72.00" departLane="best">
        <route edges="C3D3 D3D2 D2D1 D1D0"/>
    </vehicle>
    <vehicle id="veh17" type="veh_passenger" depart="76.50" departLane="best" departSpeed="max">
        <route edges="B0B1 B1B2 B2B3 B3C3 C3D3 D3E3"/>
    </vehicle>
    <vehicle id="veh18" type="veh_passenger" depart="81.00" departLane="best" departSpeed="max">
        <route edges="E1D1 D1C1 C1B1 B1B2 B2B3 B3B4"/>
    </vehicle>
    <vehicle id="veh19" type="veh_passenger" depart="85.50" departLane="best" departSpeed="max">
        <route edges="C0C1 C1B1 B1B2 B2B3"/>
    </vehicle>
    <vehicle id="veh20" type="veh_passenger" depart="90.00" departLane="best" departSpeed="max">
        <route edges="D4D3 D3D2 D2C2 C2C1 C1C0"/>
    </vehicle>
    <vehicle id="veh21" type="veh_passenger" depart="94.50" departLane="best" departSpeed="max">
        <route edges="E3D3 D3C3 C3B3"/>
    </vehicle>
    <vehicle id="veh22" type="veh_passenger" depart="99.00" departLane="best" departSpeed="max">
        <route edges="A1B1 B1C1 C1D1 D1E1"/>
    </vehicle>
    <vehicle id="veh23" type="veh_passenger" depart="103.50" departLane="best" departSpeed="max">
        <route edges="E1D1 D1C1 C1C2 C2C3 C3B3 B3A3"/>
    </vehicle>
    <vehicle id="veh24" type="veh_passenger" depart="108.00" departLane="best">
        <route edges="B3B2 B2C2 C2D2 D2D1 D1D0"/>
    </vehicle>
    <vehicle id="veh25" type="veh_passenger" depart="112.50" departLane="best" departSpeed="max">
        <route edges="A1B1 B1B2 B2B3 B3B4"/>
    </vehicle>
    <vehicle id="veh26" type="veh_passenger" depart="117.00" departLane="best" departSpeed="max">
        <route edges="A1B1 B1C1 C1D1 D1D2 D2D3 D3D4"/>
    </vehicle>
    <vehicle id="veh27" type="veh_passenger" depart="121.50" departLane="best" departSpeed="max">
        <route edges="A2B2 B2C2 C2C1 C1D1 D1E1"/>
    </vehicle>
    <vehicle id="veh28" type="veh_passenger" depart="126.00" departLane="best">
        <route edges="C1D1 D1D2 D2C2 C2C3 C3C4"/>
    </vehicle>
    <vehicle id="veh29" type="veh_passenger" depart="130.50" departLane="best" departSpeed="max">
        <route edges="B0B1 B1B2 B2B3 B3B4"/>
    </vehicle>
    <vehicle id="veh30" type="veh_passenger" depart="135.00" departLane="best" departSpeed="max">
        <route edges="E3D3 D3D2 D2D1 D1D0"/>
    </vehicle>
    <vehicle id="veh31" type="veh_passenger" depart="139.50" departLane="best" departSpeed="max">
        <route edges="B0B1 B1B2 B2B3"/>
    </vehicle>
    <vehicle id="veh32" type="veh_passenger" depart="144.00" departLane="best" departSpeed="max">
        <route edges="A2B2 B2C2 C2D2 D2D1 D1D0"/>
    </vehicle>
    <vehicle id="veh33" type="veh_passenger" depart="148.50" departLane="best" departSpeed="max">
        <route edges="B0B1 B1B2 B2C2 C2D2 D2D3 D3D4"/>
    </vehicle>
    <vehicle id="veh34" type="veh_passenger" depart="153.00" departLane="best" departSpeed="max">
        <route edges="E1D1 D1C1 C1B1 B1B0"/>
    </vehicle>
    <vehicle id="veh35" type="veh_passenger" depart="157.50" departLane="best" departSpeed="max">
        <route edges="D4D3 D3D2 D2C2 C2B2 B2A2"/>
    </vehicle>
    <vehicle id="veh36" type="veh_passenger" depart="162.00" departLane="best" departSpeed="max">
        <route edges="E3D3 D3C3 C3B3 B3B2 B2B1 B1B0"/>
    </vehicle>
    <vehicle id="veh37" type="veh_passenger" depart="166.50" departLane="best" departSpeed="max">
        <route edges="C0C1 C1B1 B1B2 B2B3 B3B4"/>
    </vehicle>
    <vehicle id="veh38" type="veh_passenger" depart="171.00" departLane="best" departSpeed="max">
        <route edges="E1D1 D1C1 C1C2 C2C3 C3B3 B3A3"/>
    </vehicle>
    <vehicle id="veh39" type="veh_passenger" depart="175.50" departLane="best" departSpeed="max">
        <route edges="C0C1 C1C2 C2C3 C3B3 B3A3"/>
    </vehicle>
    <vehicle id="veh40" type="veh_passenger" depart="180.00" departLane="best">
        <route edges="B1B2 B2B3 B3C3 C3D3 D3D4"/>
    </vehicle>
    <vehicle id="veh41" type="veh_passenger" depart="184.50" departLane="best" departSpeed="max">
        <route edges="E1D1 D1C1 C1C2 C2B2 B2A2"/>
    </vehicle>
    <vehicle id="veh42" type="veh_passenger" depart="189.00" departLane="best" departSpeed="max">
        <route edges="B4B3 B3C3 C3D3 D3E3"/>
    </vehicle>
    <vehicle id="veh43" type="veh_passenger" depart="193.50" departLane="best" departSpeed="max">
        <route edges="A1B1 B1C1 C1C2 C2C3 C3C4"/>
    </vehicle>
    <vehicle id="veh44" type="veh_passenger" depart="198.00" departLane="best" departSpeed="max">
        <route edges="A3B3 B3C3 C3D3 D3E3"/>
    </vehicle>
    <vehicle id="veh45" type="veh_passenger" depart="202.50" departLane="best" departSpeed="max">
        <route edges="C4C3 C3D3 D3D2 D2D1 D1D0"/>
    </vehicle>
    <vehicle id="veh46" type="veh_passenger" depart="207.00" departLane="best" departSpeed="max">
        <route edges="E2D2 D2C2 C2C3 C3B3 B3A3"/>
    </vehicle>
    <vehicle id="veh47" type="veh_passenger" depart="211.50" departLane="best" departSpeed="max">
        <route edges="C4C3 C3D3 D3D2 D2D1 D1C1"/>
    </vehicle>
    <vehicle id="veh48" type="veh_passenger" depart="216.00" departLane="best" departSpeed="max">
        <route edges="C0C1 C1C2 C2C3 C3C4"/>
    </vehicle>
    <vehicle id="veh49" type="veh_passenger" depart="220.50" departLane="best" departSpeed="max">
        <route edges="B0B1 B1C1 C1D1 D1E1"/>
    </vehicle>
    <vehicle id="veh50" type="veh_passenger" depart="225.00" departLane="best">
        <route edges="B3C3 C3D3 D3D2 D2D1 D1E1"/>
    </vehicle>
    <vehicle id="veh51" type="veh_passenger" depart="229.50" departLane="best" departSpeed="max">
        <route edges="D0D1 D1C1 C1B1 B1A1"/>
    </vehicle>
    <vehicle id="veh52" type="veh_passenger" depart="234.00" departLane="best" departSpeed="max">
        <route edges="D0D1 D1D2 D2D3 D3D4"/>
    </vehicle>
    <vehicle id="veh53" type="veh_passenger" depart="238.50" departLane="best" departSpeed="max">
        <route edges="A3B3 B3B2 B2B1 B1B0"/>
    </vehicle>
    <vehicle id="veh54" type="veh_passenger" depart="243.00" departLane="best" departSpeed="max">
        <route edges="D0D1 D1D2 D2D3 D3C3 C3B3 B3A3"/>
    </vehicle>
    <vehicle id="veh55" type="veh_passenger" depart="247.50" departLane="best" departSpeed="max">
        <route edges="E1D1 D1C1 C1B1 B1B0"/>
    </vehicle>
    <vehicle id="veh56" type="veh_passenger" depart="252.00" departLane="best" departSpeed="max">
        <route edges="C0C1 C1C2 C2C3 C3B3 B3A3"/>
    </vehicle>
    <vehicle id="veh57" type="veh_passenger" depart="256.50" departLane="best" departSpeed="max">
        <route edges="D0D1 D1D2 D2D3 D3C3 C3B3 B3A3"/>
    </vehicle>
    <vehicle id="veh58" type="veh_passenger" depart="261.00" departLane="best" departSpeed="max">
        <route edges="A2B2 B2C2 C2D2 D2D3 D3D4"/>
    </vehicle>
    <vehicle id="veh59" type="veh_passenger" depart="265.50" departLane="best" departSpeed="max">
        <route edges="E1D1 D1C1 C1C2 C2C3 C3C4"/>
    </vehicle>
    <vehicle id="veh60" type="veh_passenger" depart="270.00" departLane="best" departSpeed="max">
        <route edges="E2D2 D2C2 C2B2 B2B1"/>
    </vehicle>
    <vehicle id="veh61" type="veh_passenger" depart="274.50" departLane="best" departSpeed="max">
        <route edges="A3B3 B3C3 C3D3 D3D4"/>
    </vehicle>
    <vehicle id="veh62" type="veh_passenger" depart="279.00" departLane="best" departSpeed="max">
        <route edges="A1B1 B1C1 C1D1 D1E1"/>
    </vehicle>
    <vehicle id="veh63" type="veh_passenger" depart="283.50" departLane="best" departSpeed="max">
        <route edges="D4D3 D3C3 C3B3 B3A3"/>
    </vehicle>
    <vehicle id="veh64" type="veh_passenger" depart="288.00" departLane="best" departSpeed="max">
        <route edges="D4D3 D3D2 D2C2 C2B2 B2B1 B1B0"/>
    </vehicle>
    <vehicle id="veh65" type="veh_passenger" depart="292.50" departLane="best" departSpeed="max">
        <route edges="B0B1 B1B2 B2C2 C2D2 D2E2"/>
    </vehicle>
    <vehicle id="veh66" type="veh_passenger" depart="297.00" departLane="best" departSpeed="max">
        <route edges="E3D3 D3C3 C3B3 B3A3"/>
    </vehicle>
    <vehicle id="veh67" type="veh_passenger" depart="301.50" departLane="best" departSpeed="max">
        <route edges="E2D2 D2C2 C2B2 B2B1 B1B0"/>
    </vehicle>
    <vehicle id="veh68" type="veh_passenger" depart="306.00" departLane="best" departSpeed="max">
        <route edges="E3D3 D3D2 D2C2 C2B2 B2A2"/>
    </vehicle>
    <vehicle id="veh69" type="veh_passenger" depart="310.50" departLane="best" departSpeed="max">
        <route edges="E3D3 D3C3 C3B3 B3A3"/>
    </vehicle>
    <vehicle id="veh70" type="veh_passenger" depart="315.00" departLane="best" departSpeed="max">
        <route edges="C0C1 C1C2 C2C3 C3C4"/>
    </vehicle>
    <vehicle id="veh71" type="veh_passenger" depart="319.50" departLane="best">
        <route edges="B1C1 C1D1 D1E1"/>
    </vehicle>
    <vehicle id="veh72" type="veh_passenger" depart="324.00" departLane="best" departSpeed="max">
        <route edges="A1B1 B1C1 C1D1 D1D2 D2D3 D3D4"/>
    </vehicle>
    <vehicle id="veh73" type="veh_passenger" depart="328.50" departLane="best">
        <route edges="D3C3 C3C2 C2D2 D2D1 D1D0"/>
    </vehicle>
    <vehicle id="veh74" type="veh_passenger" depart="333.00" departLane="best" departSpeed="max">
        <route edges="B4B3 B3B2 B2B1 B1B0"/>
    </vehicle>
    <vehicle id="veh75" type="veh_passenger" depart="337.50" departLane="best" departSpeed="max">
        <route edges="D0D1 D1C1 C1B1 B1B2 B2B3 B3B4"/>
    </vehicle>
    <vehicle id="veh76" type="veh_passenger" depart="342.00" departLane="best">
        <route edges="B3C3 C3D3 D3D2 D2E2"/>
    </vehicle>
    <vehicle id="veh77" type="veh_passenger" depart="346.50" departLane="best">
        <route edges="B3B2 B2C2 C2C1 C1C0"/>
    </vehicle>
    <vehicle id="veh78" type="veh_passenger" depart="351.00" departLane="best" departSpeed="max">
        <route edges="C0C1 C1C2 C2C3 C3B3 B3A3"/>
    </vehicle>
    <vehicle id="veh79" type="veh_passenger" depart="355.50" departLane="best" departSpeed="max">
        <route edges="A3B3 B3C3 C3C2 C2C1 C1C0"/>
    </vehicle>
    <vehicle id="veh80" type="veh_passenger" depart="360.00" departLane="best" departSpeed="max">
        <route edges="C0C1 C1C2 C2C3 C3C4"/>
    </vehicle>
    <vehicle id="veh81" type="veh_passenger" depart="364.50" departLane="best">
        <route edges="C1D1 D1D2 D2D3 D3D4"/>
    </vehicle>
    <vehicle id="veh82" type="veh_passenger" depart="369.00" departLane="best" departSpeed="max">
        <route edges="D4D3 D3D2 D2C2 C2B2 B2A2"/>
    </vehicle>
    <vehicle id="veh83" type="veh_passenger" depart="373.50" departLane="best" departSpeed="max">
        <route edges="A2B2 B2C2 C2D2"/>
    </vehicle>
    <vehicle id="veh84" type="veh_passenger" depart="378.00" departLane="best" departSpeed="max">
        <route edges="D0D1 D1C1 C1B1 B1B2 B2B3 B3B4"/>
    </vehicle>
    <vehicle id="veh85" type="veh_passenger" depart="382.50" departLane="best" departSpeed="max">
        <route edges="D4D3 D3D2 D2D1 D1E1"/>
    </vehicle>
    <vehicle id="veh86" type="veh_passenger" depart="387.00" departLane="best" departSpeed="max">
        <route edges="D0D1 D1C1 C1B1 B1B2 B2B3"/>
    </vehicle>
    <vehicle id="veh87" type="veh_passenger" depart="391.50" departLane="best" departSpeed="max">
        <route edges="E1D1 D1C1 C1B1 B1B0"/>
    </vehicle>
    <vehicle id="veh88" type="veh_passenger" depart="396.00" departLane="best" departSpeed="max">
        <route edges="D0D1 D1C1 C1B1 B1A1"/>
    </vehicle>
    <vehicle id="veh89" type="veh_passenger" depart="400.50" departLane="best" departSpeed="max">
        <route edges="A3B3 B3C3 C3D3 D3E3"/>
    </vehicle>
    <vehicle id="veh90" type="veh_passenger" depart="405.00" departLane="best">
        <route edges="B1B2 B2C2 C2D2 D2E2"/>
    </vehicle>
    <vehicle id="veh91" type="veh_passenger" depart="409.50" departLane="best" departSpeed="max">
        <route edges="D0D1 D1D2 D2D3 D3E3"/>
    </vehicle>
    <vehicle id="veh92" type="veh_passenger" depart="414.00" departLane="best" departSpeed="max">
        <route edges="E1D1 D1C1 C1C2 C2C3 C3C4"/>
    </vehicle>
    <vehicle id="veh93" type="veh_passenger" depart="418.50" departLane="best" departSpeed="max">
        <route edges="D0D1 D1D2 D2D3 D3C3 C3B3 B3A3"/>
    </vehicle>
    <vehicle id="veh94" type="veh_passenger" depart="423.00" departLane="best" departSpeed="max">
        <route edges="C0C1 C1C2 C2D2 D2D3 D3D4"/>
    </vehicle>
    <vehicle id="veh95" type="veh_passenger" depart="427.50" departLane="best" departSpeed="max">
        <route edges="B4B3 B3B2 B2B1 B1A1"/>
    </vehicle>
    <vehicle id="veh96" type="veh_passenger" depart="432.00" departLane="best" departSpeed="max">
        <route edges="B4B3 B3B2 B2B1 B1C1 C1D1 D1E1"/>
    </vehicle>
    <vehicle id="veh97" type="veh_passenger" depart="436.50" departLane="best" departSpeed="max">
        <route edges="B0B1 B1B2 B2B3"/>
    </vehicle>
    <vehicle id="veh98" type="veh_passenger" depart="441.00" departLane="best" departSpeed="max">
        <route edges="B4B3 B3C3 C3D3 D3D2 D2D1 D1D0"/>
    </vehicle>
    <vehicle id="veh99" type="veh_passenger" depart="445.50" departLane="best" departSpeed="max">
        <route edges="D0D1 D1C1 C1B1 B1A1"/>
    </vehicle>
    <vehicle id="veh100" type="veh_passenger" depart="450.00" departLane="best" departSpeed="max">
        <route edges="C0C1 C1C2 C2C3 C3C4"/>
    </vehicle>
    <vehicle id="veh101" type="veh_passenger" depart="454.50" departLane="best" departSpeed="max">
        <route edges="A1B1 B1C1 C1D1 D1D0"/>
    </vehicle>
    <vehicle id="veh102" type="veh_passenger" depart="459.00" departLane="best" departSpeed="max">
        <route edges="B0B1 B1B2 B2B3 B3B4"/>
    </vehicle>
    <vehicle id="veh103" type="veh_passenger" depart="463.50" departLane="best" departSpeed="max">
        <route edges="E3D3 D3C3 C3B3 B3B4"/>
    </vehicle>
    <vehicle id="veh104" type="veh_passenger" depart="468.00" departLane="best" departSpeed="max">
        <route edges="E3D3 D3D2 D2C2 C2B2 B2A2"/>
    </vehicle>
    <vehicle id="veh105" type="veh_passenger" depart="472.50" departLane="best" departSpeed="max">
        <route edges="A3B3 B3C3 C3D3 D3D2 D2D1 D1D0"/>
    </vehicle>
    <vehicle id="veh106" type="veh_passenger" depart="477.00" departLane="best" departSpeed="max">
        <route edges="A3B3 B3C3 C3D3"/>
    </vehicle>
    <vehicle id="veh107" type="veh_passenger" depart="481.50" departLane="best">
        <route edges="D3C3 C3B3 B3B2 B2B1 B1B0"/>
    </vehicle>
    <vehicle id="veh108" type="veh_passenger" depart="486.00" departLane="best">
        <route edges="B3C3 C3D3 D3D2 D2D1 D1D0"/>
    </vehicle>
    <vehicle id="veh109" type="veh_passenger" depart="490.50" departLane="best" departSpeed="max">
        <route edges="E3D3 D3C3 C3C2 C2C1 C1C0"/>
    </vehicle>
    <vehicle id="veh110" type="veh_passenger" depart="495.00" departLane="best" departSpeed="max">
        <route edges="E1D1 D1C1 C1C2 C2C3 C3C4"/>
    </vehicle>
    <vehicle id="veh111" type="veh_passenger" depart="499.50" departLane="best" departSpeed="max">
        <route edges="A3B3 B3C3 C3D3 D3E3"/>
    </vehicle>
    <vehicle id="veh112" type="veh_passenger" depart="504.00" departLane="best" departSpeed="max">
        <route edges="C0C1 C1B1 B1B2 B2B3 B3C3"/>
    </vehicle>
    <vehicle id="veh113" type="veh_passenger" depart="508.50" departLane="best" departSpeed="max">
        <route edges="A2B2 B2B3 B3C3 C3D3 D3E3"/>
    </vehicle>
    <vehicle id="veh114" type="veh_passenger" depart="513.00" departLane="best">
        <route edges="B2B1 B1C1 C1C2 C2D2 D2E2"/>
    </vehicle>
    <vehicle id="veh115" type="veh_passenger" depart="517.50" departLane="best">
        <route edges="B2B1 B1C1 C1C2 C2D2 D2E2"/>
    </vehicle>
    <vehicle id="veh116" type="veh_passenger" depart="522.00" departLane="best" departSpeed="max">
        <route edges="E1D1 D1C1 C1B1 B1B0"/>
    </vehicle>
    <vehicle id="veh117" type="veh_passenger" depart="526.50" departLane="best" departSpeed="max">
        <route edges="E2D2 D2C2 C2C3 C3B3 B3A3"/>
    </vehicle>
    <vehicle id="veh118" type="veh_passenger" depart="531.00" departLane="best" departSpeed="max">
        <route edges="B4B3 B3B2 B2B1 B1A1"/>
    </vehicle>
    <vehicle id="veh119" type="veh_passenger" depart="535.50" departLane="best" departSpeed="max">
        <route edges="E1D1 D1C1 C1C2 C2B2 B2A2"/>
    </vehicle>
    <vehicle id="veh120" type="veh_passenger" depart="540.00" departLane="best" departSpeed="max">
        <route edges="B0B1 B1B2 B2C2 C2D2 D2E2"/>
    </vehicle>
    <vehicle id="veh121" type="veh_passenger" depart="544.50" departLane="best">
        <route edges="D1D2 D2D3 D3C3 C3B3 B3A3"/>
    </vehicle>
    <vehicle id="veh122" type="veh_passenger" depart="549.00" departLane="best" departSpeed="max">
        <route edges="A1B1 B1B2 B2B3 B3C3 C3D3 D3E3"/>
    </vehicle>
    <vehicle id="veh123" type="veh_passenger" depart="553.50" departLane="best" departSpeed="max">
        <route edges="A2B2 B2C2 C2C1 C1D1 D1E1"/>
    </vehicle>
    <vehicle id="veh124" type="veh_passenger" depart="558.00" departLane="best" departSpeed="max">
        <route edges="C4C3 C3C2 C2C1 C1D1"/>
    </vehicle>
    <vehicle id="veh125" type="veh_passenger" depart="562.50" departLane="best">
        <route edges="C3B3 B3B2 B2C2 C2C1 C1C0"/>
    </vehicle>
    <vehicle id="veh126" type="veh_passenger" depart="567.00" departLane="best">
        <route edges="D2C2 C2B2 B2B3 B3A3"/>
    </vehicle>
    <vehicle id="veh127" type="veh_passenger" depart="571.50" departLane="best" departSpeed="max">
        <route edges="B0B1 B1B2 B2B3"/>
    </vehicle>
    <vehicle id="veh128" type="veh_passenger" depart="576.00" departLane="best" departSpeed="max">
        <route edges="E3D3 D3C3 C3B3"/>
    </vehicle>
    <vehicle id="veh129" type="veh_passenger" depart="580.50" departLane="best" departSpeed="max">
        <route edges="E1D1 D1C1 C1C2 C2C3 C3C4"/>
    </vehicle>
    <vehicle id="veh130" type="veh_passenger" depart="585.00" departLane="best" departSpeed="max">
        <route edges="E3D3 D3D2 D2C2 C2B2"/>
    </vehicle>
    <vehicle id="veh131" type="veh_passenger" depart="589.50" departLane="best" departSpeed="max">
        <route edges="E3D3 D3C3 C3B3 B3B2 B2B1 B1B0"/>
    </vehicle>
    <vehicle id="veh132" type="veh_passenger" depart="594.00" departLane="best" departSpeed="max">
        <route edges="E3D3 D3C3 C3B3 B3B2"/>
    </vehicle>
    <vehicle id="veh133" type="veh_passenger" depart="598.50" departLane="best" departSpeed="max">
        <route edges="D0D1 D1C1 C1C2 C2C3 C3D3"/>
    </vehicle>
    <vehicle id="veh134" type="veh_passenger" depart="603.00" departLane="best" departSpeed="max">
        <route edges="D0D1 D1D2 D2C2 C2B2 B2A2"/>
    </vehicle>
    <vehicle id="veh135" type="veh_passenger" depart="607.50" departLane="best" departSpeed="max">
        <route edges="A3B3 B3B2 B2B1 B1B0"/>
    </vehicle>
    <vehicle id="veh136" type="veh_passenger" depart="612.00" departLane="best" departSpeed="max">
        <route edges="B0B1 B1C1 C1D1 D1E1"/>
    </vehicle>
    <vehicle id="veh137" type="veh_passenger" depart="616.50" departLane="best">
        <route edges="D1C1 C1C2 C2D2 D2D3 D3D4"/>
    </vehicle>
    <vehicle id="veh138" type="veh_passenger" depart="621.00" departLane="best" departSpeed="max">
        <route edges="D4D3 D3D2 D2D1 D1C1"/>
    </vehicle>
    <vehicle id="veh139" type="veh_passenger" depart="625.50" departLane="best" departSpeed="max">
        <route edges="D0D1 D1D2 D2D3 D3D4"/>
    </vehicle>
    <vehicle id="veh140" type="veh_passenger" depart="630.00" departLane="best" departSpeed="max">
        <route edges="D0D1 D1D2 D2D3 D3D4"/>
    </vehicle>
    <vehicle id="veh141" type="veh_passenger" depart="634.50" departLane="best" departSpeed="max">
        <route edges="E1D1 D1C1 C1B1 B1B0"/>
    </vehicle>
    <vehicle id="veh142" type="veh_passenger" depart="639.00" departLane="best" departSpeed="max">
        <route edges="A2B2 B2B3 B3C3 C3D3 D3E3"/>
    </vehicle>
    <vehicle id="veh143" type="veh_passenger" depart="643.50" departLane="best" departSpeed="max">
        <route edges="E1D1 D1C1 C1C2 C2C3 C3C4"/>
    </vehicle>
    <vehicle id="veh144" type="veh_passenger" depart="648.00" departLane="best" departSpeed="max">
        <route edges="D0D1 D1D2 D2D3 D3C3 C3B3 B3A3"/>
    </vehicle>
    <vehicle id="veh145" type="veh_passenger" depart="652.50" departLane="best" departSpeed="max">
        <route edges="A1B1 B1C1 C1D1 D1E1"/>
    </vehicle>
    <vehicle id="veh146" type="veh_passenger" depart="657.00" departLane="best" departSpeed="max">
        <route edges="E2D2 D2C2 C2B2 B2A2"/>
    </vehicle>
    <vehicle id="veh147" type="veh_passenger" depart="661.50" departLane="best" departSpeed="max">
        <route edges="C4C3 C3D3 D3D2 D2D1 D1D0"/>
    </vehicle>
    <vehicle id="veh148" type="veh_passenger" depart="666.00" departLane="best" departSpeed="max">
        <route edges="D0D1 D1D2 D2D3 D3C3"/>
    </vehicle>
    <vehicle id="veh149" type="veh_passenger" depart="670.50" departLane="best">
        <route edges="B2C2 C2C3 C3D3 D3E3"/>
    </vehicle>
    <vehicle id="veh150" type="veh_passenger" depart="675.00" departLane="best">
        <route edges="C1C2 C2B2 B2B3 B3B4"/>
    </vehicle>
    <vehicle id="veh151" type="veh_passenger" depart="679.50" departLane="best" departSpeed="max">
        <route edges="B4B3 B3C3 C3D3 D3E3"/>
    </vehicle>
    <vehicle id="veh152" type="veh_passenger" depart="684.00" departLane="best" departSpeed="max">
        <route edges="E3D3 D3D2 D2D1 D1D0"/>
    </vehicle>
    <vehicle id="veh153" type="veh_passenger" depart="688.50" departLane="best">
        <route edges="C3C2 C2C1 C1C0"/>
    </vehicle>
    <vehicle id="veh154" type="veh_passenger" depart="693.00" departLane="best" departSpeed="max">
        <route edges="B0B1 B1B2 B2B3 B3B4"/>
    </vehicle>
    <vehicle id="veh155" type="veh_passenger" depart="697.50" departLane="best" departSpeed="max">
        <route edges="A3B3 B3C3 C3D3 D3E3"/>
    </vehicle>
    <vehicle id="veh156" type="veh_passenger" depart="702.00" departLane="best">
        <route edges="C3D3 D3D2 D2D1 D1C1 C1B1 B1B0"/>
    </vehicle>
    <vehicle id="veh157" type="veh_passenger" depart="706.50" departLane="best">
        <route edges="B2B1 B1C1 C1C2 C2D2 D2E2"/>
    </vehicle>
    <vehicle id="veh158" type="veh_passenger" depart="711.00" departLane="best" departSpeed="max">
        <route edges="E3D3 D3C3 C3B3 B3A3"/>
    </vehicle>
    <vehicle id="veh159" type="veh_passenger" depart="715.50" departLane="best" departSpeed="max">
        <route edges="C0C1 C1C2 C2D2 D2D3 D3D4"/>
    </vehicle>
    <vehicle id="veh160" type="veh_passenger" depart="720.00" departLane="best">
        <route edges="C1C2 C2B2 B2B3 B3B4"/>
    </vehicle>
    <vehicle id="veh161" type="veh_passenger" depart="724.50" departLane="best" departSpeed="max">
        <route edges="D4D3 D3D2 D2D1 D1C1 C1B1 B1A1"/>
    </vehicle>
    <vehicle id="veh162" type="veh_passenger" depart="729.00" departLane="best" departSpeed="max">
        <route edges="D4D3 D3D2 D2D1 D1C1 C1B1"/>
    </vehicle>
    <vehicle id="veh163" type="veh_passenger" depart="733.50" departLane="best" departSpeed="max">
        <route edges="D0D1 D1D2 D2C2 C2B2 B2A2"/>
    </vehicle>
    <vehicle id="veh164" type="veh_passenger" depart="738.00" departLane="best" departSpeed="max">
        <route edges="E1D1 D1C1 C1B1 B1A1"/>
    </vehicle>
    <vehicle id="veh165" type="veh_passenger" depart="742.50" departLane="best" departSpeed="max">
        <route edges="A2B2 B2C2 C2D2 D2D1 D1D0"/>
    </vehicle>
    <vehicle id="veh166" type="veh_passenger" depart="747.00" departLane="best">
        <route edges="D3C3 C3C2 C2C1 C1C0"/>
    </vehicle>
    <vehicle id="veh167" type="veh_passenger" depart="751.50" departLane="best" departSpeed="max">
        <route edges="A2B2 B2C2 C2D2 D2D1 D1D0"/>
    </vehicle>
    <vehicle id="veh168" type="veh_passenger" depart="756.00" departLane="best">
        <route edges="D1D2 D2D3 D3D4"/>
    </vehicle>
    <vehicle id="veh169" type="veh_passenger" depart="760.50" departLane="best" departSpeed="max">
        <route edges="A1B1 B1C1 C1D1 D1D2 D2D3"/>
    </vehicle>
    <vehicle id="veh170" type="veh_passenger" depart="765.00" departLane="best" departSpeed="max">
        <route edges="A3B3 B3B2 B2B1 B1B0"/>
    </vehicle>
    <vehicle id="veh171" type="veh_passenger" depart="769.50" departLane="best">
        <route edges="B1B2 B2B3 B3C3 C3D3 D3D4"/>
    </vehicle>
    <vehicle id="veh172" type="veh_passenger" depart="774.00" departLane="best" departSpeed="max">
        <route edges="A1B1 B1B2 B2C2 C2D2 D2E2"/>
    </vehicle>
    <vehicle id="veh173" type="veh_passenger" depart="778.50" departLane="best" departSpeed="max">
        <route edges="A3B3 B3C3 C3C2 C2C1 C1C0"/>
    </vehicle>
    <vehicle id="veh174" type="veh_passenger" depart="783.00" departLane="best">
        <route edges="B1C1 C1C2 C2D2 D2E2"/>
    </vehicle>
    <vehicle id="veh175" type="veh_passenger" depart="787.50" departLane="best" departSpeed="max">
        <route edges="E3D3 D3C3 C3B3 B3A3"/>
    </vehicle>
    <vehicle id="veh176" type="veh_passenger" depart="792.00" departLane="best" departSpeed="max">
        <route edges="E3D3 D3D2 D2D1 D1D0"/>
    </vehicle>
    <vehicle id="veh177" type="veh_passenger" depart="796.50" departLane="best" departSpeed="max">
        <route edges="A1B1 B1C1 C1C2 C2C3 C3C4"/>
    </vehicle>
    <vehicle id="veh178" type="veh_passenger" depart="801.00" departLane="best">
        <route edges="B2C2 C2D2 D2E2"/>
    </vehicle>
    <vehicle id="veh179" type="veh_passenger" depart="805.50" departLane="best" departSpeed="max">
        <route edges="D0D1 D1D2 D2D3 D3D4"/>
    </vehicle>
    <vehicle id="veh180" type="veh_passenger" depart="810.00" departLane="best">
        <route edges="C1B1 B1B2 B2C2 C2C3 C3C4"/>
    </vehicle>
    <vehicle id="veh181" type="veh_passenger" depart="814.50" departLane="best">
        <route edges="B2C2 C2D2 D2D1 D1E1"/>
    </vehicle>
    <vehicle id="veh182" type="veh_passenger" depart="819.00" departLane="best" departSpeed="max">
        <route edges="E1D1 D1C1 C1C2 C2C3 C3B3 B3A3"/>
    </vehicle>
    <vehicle id="veh183" type="veh_passenger" depart="823.50" departLane="best" departSpeed="max">