<?xml version="1.0" encoding="UTF-8"?>

<!-- generated on Wed May 27 06:42:21 2020 by Eclipse SUMO duarouter Version 1.6.0
<configuration xmlns:xsi="http://www.w3.org/2001/XMLSchema-instance" xsi:noNamespaceSchemaLocation="http://sumo.dlr.de/xsd/duarouterConfiguration.xsd">

    <input>
        <net-file value="optimal3.net.xml"/>
        <route-files value="optimal.pedestrian.trips.xml"/>
    </input>

    <output>
        <output-file value="optimal.pedestrian.rou.xml"/>
        <alternatives-output value="optimal.pedestrian.rou.alt.xml"/>
    </output>

    <time>
        <begin value="0"/>
        <end value="1800.0"/>
    </time>

    <report>
        <no-warnings value="true"/>
        <ignore-errors value="true"/>
        <no-step-log value="true"/>
    </report>

</configuration>
-->

<routes xmlns:xsi="http://www.w3.org/2001/XMLSchema-instance" xsi:noNamespaceSchemaLocation="http://sumo.dlr.de/xsd/routes_file.xsd">
    <vType id="ped_pedestrian" vClass="pedestrian"/>
    <person id="ped0" type="ped_pedestrian" depart="0.00">
        <walk edges="C4C3 C3C4 C3B3 B3B2 B2A2 A2B2"/>
    </person>
    <person id="ped1" type="ped_pedestrian" depart="5.00">
        <walk edges="B3B2 B2B3"/>
    </person>
    <person id="ped2" type="ped_pedestrian" depart="10.00">
        <walk edges="D1E1 D1C1"/>
    </person>
    <person id="ped3" type="ped_pedestrian" depart="15.00">
        <walk edges="D3D4 C3D3 C3B3 B3B2 B2B1 B1A1"/>
    </person>
    <person id="ped4" type="ped_pedestrian" depart="20.00">
        <walk edges="C1C2 C2B2 B2A2 A2B2"/>
    </person>
    <person id="ped5" type="ped_pedestrian" depart="25.00">
        <walk edges="B2B3 C2B2 C2C3"/>
    </person>
    <person id="ped6" type="ped_pedestrian" depart="30.00">
        <walk edges="A2B2 B2A2 B2B1"/>
    </person>
    <person id="ped7" type="ped_pedestrian" depart="35.00">
        <walk edges="D0D1 D1D0 D1C1 C1C2 C2C3 C3B3"/>
    </person>
    <person id="ped8" type="ped_pedestrian" depart="40.00">
        <walk edges="B2B3 B3C3 C3C4"/>
    </person>
    <person id="ped9" type="ped_pedestrian" depart="45.00">
        <walk edges="D2D3 C2D2 C2B2 B2B1 B1A1 A1B1"/>
    </person>
    <person id="ped10" type="ped_pedestrian" depart="50.00">
        <walk edges="D2D3 D1D2 D1D0"/>
    </person>
    <person id="ped11" type="ped_pedestrian" depart="55.00">
        <walk edges="B4B3 B3B4 B3B2 B2B1 B1C1"/>
    </person>
    <person id="ped12" type="ped_pedestrian" depart="60.00">
        <walk edges="E1D1 D1E1 D1C1 C1B1 B1B2 B3B2 B3B4 B4B3"/>
    </person>
    <person id="ped13" type="ped_pedestrian" depart="65.00">
        <walk edges="B1A1"/>
    </person>
    <person id="ped14" type="ped_pedestrian" depart="70.00">
        <walk edges="D3C3 C3C4"/>
    </person>
    <person id="ped15" type="ped_pedestrian" depart="75.00">
        <walk edges="D2D3 D1D2 D1E1"/>
    </person>
    <person id="ped16" type="ped_pedestrian" depart="80.00">
        <walk edges="C2D2 D2E2 E2D2"/>
    </person>
    <person id="ped17" type="ped_pedestrian" depart="85.00">
        <walk edges="C1B1 C2C1 C2C3 C3B3"/>
    </person>
    <person id="ped18" type="ped_pedestrian" depart="90.00">
        <walk edges="D2E2 D3D2 C3D3"/>
    </person>
    <person id="ped19" type="ped_pedestrian" depart="95.00">
        <walk edges="D3D2 C3D3 C3C2"/>
    </person>
    <person id="ped20" type="ped_pedestrian" depart="100.00">
        <walk edges="D1D0 C1D1 C1B1 B1B2 B2B3 B3A3 A3B3"/>
    </person>
    <person id="ped21" type="ped_pedestrian" depart="105.00">
        <walk edges="B2B3 B3B2"/>
    </person>
    <person id="ped22" type="ped_pedestrian" depart="110.00">
        <walk edges="B0B1 B1B0 B1B2 B2C2"/>
    </person>
    <person id="ped23" type="ped_pedestrian" depart="115.00">
        <walk edges="B1A1 B2B1 B3B2"/>
    </person>
    <person id="ped24" type="ped_pedestrian" depart="120.00">
        <walk edges="C4C3 C3C4 C3C2 C2C1 C1C0 C0C1"/>
    </person>
    <person id="ped25" type="ped_pedestrian" depart="125.00">
        <walk edges="C0C1 C1C0 C1B1 B1B2 B2B3"/>
    </person>
    <person id="ped26" type="ped_pedestrian" depart="130.00">
        <walk edges="B3A3 C3B3 C3D3 D3D4 D4D3"/>
    </person>
    <person id="ped27" type="ped_pedestrian" depart="135.00">
        <walk edges="D0D1 D1D0 D1D2 D2D3 C3D3"/>
    </person>
    <person id="ped28" type="ped_pedestrian" depart="140.00">
        <walk edges="B2A2 C2B2 C2D2 D1D2"/>
    </person>
    <person id="ped29" type="ped_pedestrian" depart="145.00">
        <walk edges="B1C1 C1B1"/>
    </person>
    <person id="ped30" type="ped_pedestrian" depart="150.00">
        <walk edges="E3D3 D3E3 D3C3 C3C4 C4C3"/>
    </person>
    <person id="ped31" type="ped_pedestrian" depart="155.00">
        <walk edges="C3B3 C2C3 C2C1 D1C1"/>
    </person>
    <person id="ped32" type="ped_pedestrian" depart="160.00">
        <walk edges="D3C3 D2D3 D2D1"/>
    </person>
    <person id="ped33" type="ped_pedestrian" depart="165.00">
        <walk edges="B2B3 B2A2 A2B2"/>
    </person>
    <person id="ped34" type="ped_pedestrian" depart="170.00">
        <walk edges="B3C3 B3A3"/>
    </person>
    <person id="ped35" type="ped_pedestrian" depart="175.00">
        <walk edges="B2B3 B1B2 B1C1 C1D1 D1E1 E1D1"/>
    </person>
    <person id="ped36" type="ped_pedestrian" depart="180.00">
        <walk edges="D3D4 C3D3 B3C3"/>
    </person>
    <person id="ped37" type="ped_pedestrian" depart="185.00">
        <walk edges="D0D1 D1D0 D1C1 C1B1"/>
    </person>
    <person id="ped38" type="ped_pedestrian" depart="190.00">
        <walk edges="D3E3 C3D3 C3C2 C2B2"/>
    </person>
    <person id="ped39" type="ped_pedestrian" depart="195.00">
        <walk edges="B3A3 B2B3 B2C2"/>
    </person>
    <person id="ped40" type="ped_pedestrian" depart="200.00">
        <walk edges="C3B3 B3A3"/>
    </person>
    <person id="ped41" type="ped_pedestrian" depart="205.00">
        <walk edges="C3C4 D3C3 D3E3"/>
    </person>
    <person id="ped42" type="ped_pedestrian" depart="210.00">
        <walk edges="C1C0 B1C1 B1B2 B2B3"/>
    </person>
    <person id="ped43" type="ped_pedestrian" depart="215.00">
        <walk edges="E3D3 D3E3 D3C3 C2C3"/>
    </person>
    <person id="ped44" type="ped_pedestrian" depart="220.00">
        <walk edges="B1A1 B2B1 B2B3 B3A3 A3B3"/>
    </person>
    <person id="ped45" type="ped_pedestrian" depart="225.00">
        <walk edges="B1B0 B2B1 B2B3 B3C3 C3C4 C4C3"/>
    </person>
    <person id="ped46" type="ped_pedestrian" depart="230.00">
        <walk edges="D2D3 C2D2 C1C2"/>
    </person>
    <person id="ped47" type="ped_pedestrian" depart="235.00">
        <walk edges="B0B1 B1B0 C1B1"/>
    </person>
    <person id="ped48" type="ped_pedestrian" depart="240.00">
        <walk edges="E3D3 D3E3 D3D2 C2D2"/>
    </person>
    <person id="ped49" type="ped_pedestrian" depart="245.00">
        <walk edges="E2D2 D2E2 D3D2"/>
    </person>
    <person id="ped50" type="ped_pedestrian" depart="250.00">
        <walk edges="A1B1 B1A1 B1C1 C1D1 D1D2"/>
    </person>
    <person id="ped51" type="ped_pedestrian" depart="255.00">
        <walk edges="D1C1 D2D1 C2D2"/>
    </person>
    <person id="ped52" type="ped_pedestrian" depart="260.00">
        <walk edges="B3A3 C3B3 C3C4 C4C3"/>
    </person>
    <person id="ped53" type="ped_pedestrian" depart="265.00">
        <walk edges="B1B0 C1B1 C1C2"/>
    </person>
    <person id="ped54" type="ped_pedestrian" depart="270.00">
        <walk edges="C1D1 D1E1 E1D1"/>
    </person>
    <person id="ped55" type="ped_pedestrian" depart="275.00">
        <walk edges="D3D4 C3D3 C3B3 B3A3"/>
    </person>
    <person id="ped56" type="ped_pedestrian" depart="280.00">
        <walk edges="C2C3 B2C2 B2A2"/>
    </person>
    <person id="ped57" type="ped_pedestrian" depart="285.00">
        <walk edges="D3E3 D3D2"/>
    </person>
    <person id="ped58" type="ped_pedestrian" depart="290.00">
        <walk edges="B3B4 C3B3 C3C4 C4C3"/>
    </person>
    <person id="ped59" type="ped_pedestrian" depart="295.00">
        <walk edges="C3D3 C2C3 C2C1 B1C1"/>
    </person>
    <person id="ped60" type="ped_pedestrian" depart="300.00">
        <walk edges="D2C2 C2D2"/>
    </person>
    <person id="ped61" type="ped_pedestrian" depart="305.00">
        <walk edges="D2D1 C2D2"/>
    </person>
    <person id="ped62" type="ped_pedestrian" depart="310.00">
        <walk edges="A1B1 B1A1 B1B2 B2B3 B3C3"/>
    </person>
    <person id="ped63" type="ped_pedestrian" depart="315.00">
        <walk edges="A1B1 B1A1 B1B2 B2B3 B3C3 D3C3 D3D4 D4D3"/>
    </person>
    <person id="ped64" type="ped_pedestrian" depart="320.00">
        <walk edges="D3D4 D2D3 D2E2"/>
    </person>
    <person id="ped65" type="ped_pedestrian" depart="325.00">
        <walk edges="B3B4 B3A3 A3B3"/>
    </person>
    <person id="ped66" type="ped_pedestrian" depart="330.00">
        <walk edges="D3D4 D2D3 D2D1 D1E1 E1D1"/>
    </person>
    <person id="ped67" type="ped_pedestrian" depart="335.00">
        <walk edges="B1A1 C1B1 C2C1"/>
    </person>
    <person id="ped68" type="ped_pedestrian" depart="340.00">
        <walk edges="B0B1 B1B0 B1B2 B2C2 D2C2"/>
    </person>
    <person id="ped69" type="ped_pedestrian" depart="345.00">
        <walk edges="D2C2 C2B2 B1B2"/>
    </person>
    <person id="ped70" type="ped_pedestrian" depart="350.00">
        <walk edges="C2B2 C3C2 C3B3"/>
    </person>
    <person id="ped71" type="ped_pedestrian" depart="355.00">
        <walk edges="B3A3 C3B3 C3D3 D3D2"/>
    </person>
    <person id="ped72" type="ped_pedestrian" depart="360.00">
        <walk edges="C1C2 C2B2 B2B3"/>
    </person>
    <person id="ped73" type="ped_pedestrian" depart="365.00">
        <walk edges="C2D2 D2D1 D1E1"/>
    </person>
    <person id="ped74" type="ped_pedestrian" depart="370.00">
        <walk edges="B2B1 B3B2 B3B4"/>
    </person>
    <person id="ped75" type="ped_pedestrian" depart="375.00">
        <walk edges="E3D3 D3E3 D3D2 D2D1 D1D0 D0D1"/>
    </person>
    <person id="ped76" type="ped_pedestrian" depart="380.00">
        <walk edges="C1D1 C2C1 C2C3"/>
    </person>
    <person id="ped77" type="ped_pedestrian" depart="385.00">
        <walk edges="B1B0 B2B1 B2B3"/>
    </person>
    <person id="ped78" type="ped_pedestrian" depart="390.00">
        <walk edges="B4B3 B3B4 B3C3 C3C4"/>
    </person>
    <person id="ped79" type="ped_pedestrian" depart="395.00">
        <walk edges="B2C2 B2B3"/>
    </person>
    <person id="ped80" type="ped_pedestrian" depart="400.00">
        <walk edges="B0B1 B1B0 B1B2 B2B3 B3C3 C3C4 C4C3"/>
    </person>
    <person id="ped81" type="ped_pedestrian" depart="405.00">
        <walk edges="B2B3 B3C3 C3D3 D3E3"/>
    </person>
    <person id="ped82" type="ped_pedestrian" depart="410.00">
        <walk edges="D3D2 D2C2 C2B2 B2B1 B1B0 B0B1"/>
    </person>
    <person id="ped83" type="ped_pedestrian" depart="415.00">
        <walk edges="B2C2 C2C1 D1C1"/>
    </person>
    <person id="ped84" type="ped_pedestrian" depart="420.00">
        <walk edges="B2B3 B1B2"/>
    </person>
    <person id="ped85" type="ped_pedestrian" depart="425.00">
        <walk edges="D4D3 D3D4 D3C3 C3C2"/>
    </person>
    <person id="ped86" type="ped_pedestrian" depart="430.00">
        <walk edges="C2B2 D2C2 D2D1"/>
    </person>
    <person id="ped87" type="ped_pedestrian" depart="435.00">
        <walk edges="D2D3 C2D2 C2B2 B2B1"/>
    </person>
    <person id="ped88" type="ped_pedestrian" depart="440.00">
        <walk edges="B1A1 C1B1 C1C2"/>
    </person>
    <person id="ped89" type="ped_pedestrian" depart="445.00">
        <walk edges="C1C2 C2B2"/>
    </person>
    <person id="ped90" type="ped_pedestrian" depart="450.00">
        <walk edges="D1D2 D1C1"/>
    </person>
    <person id="ped91" type="ped_pedestrian" depart="455.00">
        <walk edges="E3D3 D3E3 D3C3 C3B3 B3B2 B1B2 B1A1"/>
    </person>
    <person id="ped92" type="ped_pedestrian" depart="460.00">
        <walk edges="C1C0 B1C1 B1B2 B2B3 B3B4 B4B3"/>
    </person>
    <person id="ped93" type="ped_pedestrian" depart="465.00">
        <walk edges="D3D2 D2C2 B2C2"/>
    </person>
    <person id="ped94" type="ped_pedestrian" depart="470.00">
        <walk edges="B2B1 B1C1 C1D1"/>
    </person>
    <person id="ped95" type="ped_pedestrian" depart="475.00">
        <walk edges="C1C2 C2B2 B3B2"/>
    </person>
    <person id="ped96" type="ped_pedestrian" depart="480.00">
        <walk edges="B2C2 C2C3 C3D3 D3D4 D4D3"/>
    </person>
    <person id="ped97" type="ped_pedestrian" depart="485.00">
        <walk edges="C1D1 D1D2 D3D2"/>
    </person>
    <person id="ped98" type="ped_pedestrian" depart="490.00">
        <walk edges="C3B3 B3A3 A3B3"/>
    </person>
    <person id="ped99" type="ped_pedestrian" depart="495.00">
        <walk edges="E3D3 D3E3 D3C3"/>
    </person>
    <person id="ped100" type="ped_pedestrian" depart="500.00">
        <walk edges="E2D2 D2E2 D2D3 D3D4 D4D3"/>
    </person>
    <person id="ped101" type="ped_pedestrian" depart="505.00">
        <walk edges="D3C3 C3C2 C2C1 B1C1"/>
    </person>
    <person id="ped102" type="ped_pedestrian" depart="510.00">
        <walk edges="C2C1 B2C2 B2B3"/>
    </person>
    <person id="ped103" type="ped_pedestrian" depart="515.00">
        <walk edges="C1C0 B1C1 B1B2 B2B3 B3A3 A3B3"/>
    </person>
    <person id="ped104" type="ped_pedestrian" depart="520.00">
        <walk edges="C1B1 C2C1 C2C3 C3D3 D3E3 E3D3"/>
    </person>
    <person id="ped105" type="ped_pedestrian" depart="525.00">
        <walk edges="B3A3 B2B3 B2C2 C2D2 D2D1"/>
    </person>
    <person id="ped106" type="ped_pedestrian" depart="530.00">
        <walk edges="C1D1 C1C2"/>
    </person>
    <person id="ped107" type="ped_pedestrian" depart="535.00">
        <walk edges="E1D1 D1E1 D1D2 D2D3 D3E3 E3D3"/>
    </person>
    <person id="ped108" type="ped_pedestrian" depart="540.00">
        <walk edges="C3B3 C2C3 C2D2 D1D2"/>
    </person>
    <person id="ped109" type="ped_pedestrian" depart="545.00">
        <walk edges="B1C1 B2B1 B2B3 B3B4"/>
    </person>
    <person id="ped110" type="ped_pedestrian" depart="550.00">
        <walk edges="E2D2 D2E2 D2C2 C3C2"/>
    </person>
    <person id="ped111" type="ped_pedestrian" depart="555.00">
        <walk edges="C3B3 C2C3 C2C1 C1D1 D1E1"/>
    </person>
    <person id="ped112" type="ped_pedestrian" depart="560.00">
        <walk edges="A3B3 B3A3 B3C3 C3C4"/>
    </person>
    <person id="ped113" type="ped_pedestrian" depart="565.00">
        <walk edges="C2C3 D3C3"/>
    </person>
    <person id="ped114" type="ped_pedestrian" depart="570.00">
        <walk edges="B1C1 C1C2 C2D2 D2E2 E2D2"/>
    </person>
    <person id="ped115" type="ped_pedestrian" depart="575.00">
        <walk edges="B0B1 B1B0 B1B2 B2A2"/>
    </person>
    <person id="ped116" type="ped_pedestrian" depart="580.00">
        <walk edges="C3C4 C2C3 C2C1 D1C1"/>
    </person>
    <person id="ped117" type="ped_pedestrian" depart="585.00">
        <walk edges="B2C2 B1B2 B1B0"/>
    </person>
    <person id="ped118" type="ped_pedestrian" depart="590.00">
        <walk edges="D3D4 C3D3 C3C2 B2C2"/>
    </person>
    <person id="ped119" type="ped_pedestrian" depart="595.00">
        <walk edges="C3C4 C3D3"/>
    </person>
    <person id="ped120" type="ped_pedestrian" depart="600.00">
        <walk edges="C1C2 C2C3 C3C4"/>
    </person>
    <person id="ped121" type="ped_pedestrian" depart="605.00">
        <walk edges="C2D2 D2D3 D3D4 D4D3"/>
    </person>
    <person id="ped122" type="ped_pedestrian" depart="610.00">
        <walk edges="B2B1 C2B2 C2D2 D1D2"/>
    </person>
    <person id="ped123" type="ped_pedestrian" depart="615.00">
        <walk edges="B2C2 B1B2 C1B1"/>
    </person>
    <person id="ped124" type="ped_pedestrian" depart="620.00">
        <walk edges="D1C1 C1B1 B1B2 B2B3 B3B4"/>
    </person>
    <person id="ped125" type="ped_pedestrian" depart="625.00">
        <walk edges="B3C3 C3C2 D2C2"/>
    </person>
    <person id="ped126" type="ped_pedestrian" depart="630.00">
        <walk edges="B0B1 B1B0 B1C1 C1D1"/>
    </person>
    <person id="ped127" type="ped_pedestrian" depart="635.00">
        <walk edges="E3D3"/>
    </person>
    <person id="ped128" type="ped_pedestrian" depart="640.00">
        <walk edges="B0B1 B1B0 B1B2 B2B3"/>
    </person>
    <person id="ped129" type="ped_pedestrian" depart="645.00">
        <walk edges="B3A3 C3B3 C3D3 D3D4 D4D3"/>
    </person>
    <person id="ped130" type="ped_pedestrian" depart="650.00">
        <walk edges="D3D4"/>
    </person>
    <person id="ped131" type="ped_pedestrian" depart="655.00">
        <walk edges="C0C1 C1C0 B1C1"/>
    </person>
    <person id="ped132" type="ped_pedestrian" depart="660.00">
        <walk edges="D3C3 D2D3 D2D1 D1D0"/>
    </person>
    <person id="ped133" type="ped_pedestrian" depart="665.00">
        <walk edges="C3D3 D3E3 E3D3"/>
    </person>
    <person id="ped134" type="ped_pedestrian" depart="670.00">
        <walk edges="D0D1 D1D0 D1C1 C1B1 B1A1 A1B1"/>
    </person>
    <person id="ped135" type="ped_pedestrian" depart="675.00">
        <walk edges="D2E2 C2D2 C2B2 B2B3 B3B4"/>
    </person>
    <person id="ped136" type="ped_pedestrian" depart="680.00">
        <walk edges="D0D1 D1D0 D1E1 E1D1"/>
    </person>
    <person id="ped137" type="ped_pedestrian" depart="685.00">
        <walk edges="B1B2 B1B0"/>
    </person>
    <person id="ped138" type="ped_pedestrian" depart="690.00">
        <walk edges="B1B0 B2B1 B2B3 C3B3"/>
    </person>
    <person id="ped139" type="ped_pedestrian" depart="695.00">
        <walk edges="B3B2 C3B3 C3D3"/>
    </person>
    <person id="ped140" type="ped_pedestrian" depart="700.00">
        <walk edges="D1D2 C1D1 C1B1 B2B1"/>
    </person>
    <person id="ped141" type="ped_pedestrian" depart="705.00">
        <walk edges="C4C3 C3C4 C3B3 B3A3"/>
    </person>
    <person id="ped142" type="ped_pedestrian" depart="710.00">
        <walk edges="C2C1 C3C2 C3D3 D3E3"/>
    </person>
    <person id="ped143" type="ped_pedestrian" depart="715.00">
        <walk edges="D3C3 C3B3 B3B2 B2B1 B1A1"/>
    </person>
    <person id="ped144" type="ped_pedestrian" depart="720.00">
        <walk edges="C1C2 C2B2 B3B2"/>
    </person>
    <person id="ped145" type="ped_pedestrian" depart="725.00">
        <walk edges="A1B1 B1A1 B1C1 C1D1 D2D1"/>
    </person>
    <person id="ped146" type="ped_pedestrian" depart="730.00">
        <walk edges="C4C3 C3C4 C3B3 B3A3"/>
    </person>
    <person id="ped147" type="ped_pedestrian" depart="735.00">
        <walk edges="D1E1 C1D1 C1C2 C2C3 C3B3"/>
    </person>
    <person id="ped148" type="ped_pedestrian" depart="740.00">
        <walk edges="C1C2 B1C1 B1A1 A1B1"/>
    </person>
    <person id="ped149" type="ped_pedestrian" depart="745.00">
        <walk edges="B0B1 B1B0 B1B2 B2B3 B3C3 D3C3 D3D4"/>
    </person>
    <person id="ped150" type="ped_pedestrian" depart="750.00">
        <walk edges="D3E3 C3D3 C3B3"/>
    </person>
    <person id="ped151" type="ped_pedestrian" depart="755.00">
        <walk edges="D3C3 C3C2"/>
    </person>
    <person id="ped152" type="ped_pedestrian" depart="760.00">
        <walk edges="B1C1 B1B2"/>
    </person>
    <person id="ped153" type="ped_pedestrian" depart="765.00">
        <walk edges="B3B4 C3B3 C3D3 D3E3"/>
    </person>
    <person id="ped154" type="ped_pedestrian" depart="770.00">
        <walk edges="D2D3 D3D2"/>
    </person>
    <person id="ped155" type="ped_pedestrian" depart="775.00">
        <walk edges="D3E3 C3D3 C3B3 B2B3"/>
    </person>
    <person id="ped156" type="ped_pedestrian" depart="780.00">
        <walk edges="B2C2 B1B2 B1A1"/>
    </person>
    <person id="ped157" type="ped_pedestrian" depart="785.00">
        <walk edges="D2D1 D3D2 D3D4"/>
    </person>
    <person id="ped158" type="ped_pedestrian" depart="790.00">
        <walk edges="C1C0 C2C1 C2C3 C3D3"/>
    </person>
    <person id="ped159" type="ped_pedestrian" depart="795.00">
        <walk edges="B1C1 C1C2 C2C3 C3D3 D3D4 D4D3"/>
    </person>
    <person id="ped160" type="ped_pedestrian" depart="800.00">
        <walk edges="D3D2 D2E2 E2D2"/>
    </person>
    <person id="ped161" type="ped_pedestrian" depart="805.00">
        <walk edges="D2D3 D3D4"/>
    </person>
    <person id="ped162" type="ped_pedestrian" depart="810.00">
        <walk edges="A2B2 B2A2 B2B1 B1C1 C1D1 D1E1"/>
    </person>
    <person id="ped163" type="ped_pedestrian" depart="815.00">
        <walk edges="B3C3 C3D3 D3D4 D4D3"/>
    </person>
    <person id="ped164" type="ped_pedestrian" depart="820.00">
        <walk edges="D2D3 D3D2"/>
    </person>
    <person id="ped165" type="ped_pedestrian" depart="825.00">
        <walk edges="D2D3 D3C3 C3B3 B3A3"/>
    </person>
    <person id="ped166" type="ped_pedestrian" depart="830.00">
        <walk edges="D2D1 D1C1 C1B1 B1B0"/>
    </person>
    <person id="ped167" type="ped_pedestrian" depart="835.00">
        <walk edges="D3D2"/>
    </person>
    <person id="ped168" type="ped_pedestrian" depart="840.00">
        <walk edges="B2B3 C2B2 C2D2 D2E2"/>
    </person>
    <person id="ped169" type="ped_pedestrian" depart="845.00">
        <walk edges="C2B2 B2B3 B3B4"/>
    </person>
    <person id="ped170" type="ped_pedestrian" depart="850.00">
        <walk edges="D2D3 C2D2 C2B2 B2B3"/>
    </person>
    <person id="ped171" type="ped_pedestrian" depart="855.00">
        <walk edges="A2B2 B2A2 B2B1"/>
    </person>
    <person id="ped172" type="ped_pedestrian" depart="860.00">
        <walk edges="B3C3 C3D3 D3D2"/>
    </person>
    <person id="ped173" type="ped_pedestrian" depart="865.00">
        <walk edges="E2D2 D2E2 D2C2 C2B2 B3B2"/>
    </person>
    <person id="ped174" type="ped_pedestrian" depart="870.00">
        <walk edges="C4C3 C3C4 C3C2 C2C1 C1C0"/>
    </person>
    <person id="ped175" type="ped_pedestrian" depart="875.00">
        <walk edges="E3D3 D3E3 D3D2 C2D2"/>
    </person>
    <person id="ped176" type="ped_pedestrian" depart="880.00">
        <walk edges="E1D1 D1E1 D1C1 C1B1 B1B0"/>
    </person>
    <person id="ped177" type="ped_pedestrian" depart="885.00">
        <walk edges="E2D2 D2E2 D2C2 C2B2 B2A2"/>
    </person>
    <person id="ped178" type="ped_pedestrian" depart="890.00">
        <walk edges="E2D2 D2E2 D2C2 C2B2 B2B3 B3A3"/>
    </person>
    <person id="ped179" type="ped_pedestrian" depart="895.00">
        <walk edges="B1B0 C1B1 C1C2"/>
    </person>
    <person id="ped180" type="ped_pedestrian" depart="900.00">
        <walk edges="D1D2 D2C2 C2C3 B3C3"/>
    </person>
    <person id="ped181" type="ped_pedestrian" depart="905.00">
        <walk edges="C3D3 C2C3"/>
    </person>
    <person id="ped182" type="ped_pedestrian" depart="910.00">
        <walk edges="C1B1 C2C1 C3C2"/>
    </person>
    <person id="ped183" type="ped_pedestrian" depart="915.00">
        <walk edges="B3A3 B2B3 B2C2 C2D2 D1D2"/>
    </person>
    <person id="ped184" type="ped_pedestrian" depart="920.00">
        <walk edges="A1B1 B1A1 B1B2 B2B3 B3C3 D3C3 D3D4 D4D3"/>
    </person>
    <person id="ped185" type="ped_pedestrian" depart="925.00">
        <walk edges="C2D2 D1D2"/>
    </person>
    <person id="ped186" type="ped_pedestrian" depart="930.00">
        <walk edges="D1E1 D1C1"/>
    </person>
    <person id="ped187" type="ped_pedestrian" depart="935.00">
        <walk edges="C0C1 C1C0 C1B1 B1B0 B0B1"/>
    </person>
    <person id="ped188" type="ped_pedestrian" depart="940.00">
        <walk edges="D0D1 D1D0 D1C1 C1C2 C2C3 B3C3"/>
    </person>
    <person id="ped189" type="ped_pedestrian" depart="945.00">
        <walk edges="B3C3 D3C3"/>
    </person>
    <person id="ped190" type="ped_pedestrian" depart="950.00">
        <walk edges="D1D2 D2C2 C2B2 B2B3 B3B4"/>
    </person>
    <person id="ped191" type="ped_pedestrian" depart="955.00">
        <walk edges="B3B4 B2B3 B2B1 B1C1 C1C0"/>
    </person>
    <person id="ped192" type="ped_pedestrian" depart="960.00">
        <walk edges="C1C0 B1C1 B1B2 B2B3 B3B4"/>
    </person>
    <person id="ped193" type="ped_pedestrian" depart="965.00">
        <walk edges="B1B2 C1B1 C1C2"/>
    </person>
    <person id="ped194" type="ped_pedestrian" depart="970.00">
        <walk edges="E1D1 D1E1 D1C1"/>
    </person>
    <person id="ped195" type="ped_pedestrian" depart="975.00">
        <walk edges="D3E3 C3D3"/>
    </person>
    <person id="ped196" type="ped_pedestrian" depart="980.00">
        <walk edges="B3B4 C3B3"/>
    </person>
    <person id="ped197" type="ped_pedestrian" depart="985.00">
        <walk edges="A1B1 B1A1 B1B2 B3B2"/>
    </person>
    <person id="ped198" type="ped_pedestrian" depart="990.00">
        <walk edges="C1C2 C3C2"/>
    </person>
    <person id="ped199" type="ped_pedestrian" depart="995.00">
        <walk edges="D0D1 D1D0 D1C1 C1C2 C2B2"/>
    </person>
    <person id="ped200" type="ped_pedestrian" depart="1000.00">
        <walk edges="C1D1 B1C1 B1B2 B2B3"/>
    </person>
    <person id="ped201" type="ped_pedestrian" depart="1005.00">
        <walk edges="C2B2 C3C2 C3D3 D3E3"/>
    </person>
    <person id="ped202" type="ped_pedestrian" depart="1010.00">
        <walk edges="D2D3 C2D2 C2B2 B2A2"/>
    </person>
    <person id="ped203" type="ped_pedestrian" depart="1015.00">
        <walk edges="B1A1 B2B1 B2C2 C2C3"/>
    </person>
    <person id="ped204" type="ped_pedestrian" depart="1020.00">
        <walk edges="C4C3 C3C4 C3B3 B3B4 B4B3"/>
    </person>
    <person id="ped205" type="ped_pedestrian" depart="1025.00">
        <walk edges="D2E2 D2C2"/>
    </person>
    <person id="ped206" type="ped_pedestrian" depart="1030.00">
        <walk edges="D1C1 C1B1 B1B2 B2B3"/>
    </person>
    <person id="ped207" type="ped_pedestrian" depart="1035.00">
        <walk edges="B2B1 B2A2 A2B2"/>
    </person>
    <person id="ped208" type="ped_pedestrian" depart="1040.00">
        <walk edges="B2C2 C2B2"/>
    </person>
    <person id="ped209" type="ped_pedestrian" depart="1045.00">
        <walk edges="D3C3 C3B3 B3B2 B2B1 B1B0 B0B1"/>
    </person>
    <person id="ped210" type="ped_pedestrian" depart="1050.00">
        <walk edges="C1C0 C2C1 C2C3 C3C4 C4C3"/>
    </person>
    <person id="ped211" type="ped_pedestrian" depart="1055.00">
        <walk edges="B2B1 B1C1 C1D1 D1D0"/>
    </person>
    <person id="ped212" type="ped_pedestrian" depart="1060.00">
        <walk edges="C2C1 B2C2"/>
    </person>
    <person id="ped213" type="ped_pedestrian" depart="1065.00">
        <walk edges="D0D1 D1D0 D1C1 C1B1 B1A1 A1B1"/>
    </person>
    <person id="ped214" type="ped_pedestrian" depart="1070.00">
        <walk edges="D2C2"/>
    </person>
    <person id="ped215" type="ped_pedestrian" depart="1075.00">
        <walk edges="B1B0 C1B1 C1C2"/>
    </person>
    <person id="ped216" type="ped_pedestrian" depart="1080.00">
        <walk edges="B2A2 B1B2 B1C1 C1D1 D1E1 E1D1"/>
    </person>
    <person id="ped217" type="ped_pedestrian" depart="1085.00">
        <walk edges="C2C3 C3B3 B3A3 A3B3"/>
    </person>
    <person id="ped218" type="ped_pedestrian" depart="1090.00">
        <walk edges="B2C2 C2C3 D3C3"/>
    </person>
    <person id="ped219" type="ped_pedestrian" depart="1095.00">
        <walk edges="C1D1 D1D2 D2D3"/>
    </person>
    <person id="ped220" type="ped_pedestrian" depart="1100.00">
        <walk edges="D1C1 D2D1 D2D3 D3E3 E3D3"/>
    </person>
    <person id="ped221" type="ped_pedestrian" depart="1105.00">
        <walk edges="C3C4 C2C3 C2C1 C1D1 D1E1 E1D1"/>
    </person>
    <person id="ped222" type="ped_pedestrian" depart="1110.00">
        <walk edges="D3D4 C3D3"/>
    </person>
    <person id="ped223" type="ped_pedestrian" depart="1115.00">
        <walk edges="D1D2 D2C2 C2C3"/>
    </person>
    <person id="ped224" type="ped_pedestrian" depart="1120.00">
        <walk edges="D2E2 C2D2 C2C3 C3B3"/>
    </person>
    <person id="ped225" type="ped_pedestrian" depart="1125.00">
        <walk edges="D3E3 D2D3 D2D1 D1E1"/>
    </person>
    <person id="ped226" type="ped_pedestrian" depart="1130.00">
        <walk edges="C2B2 B2B3 B3A3"/>
    </person>
    <person id="ped227" type="ped_pedestrian" depart="1135.00">
        <walk edges="B2C2 C2C3 C3C4 C4C3"/>
    </person>
    <person id="ped228" type="ped_pedestrian" depart="1140.00">
        <walk edges="D2C2 C2D2"/>
    </person>
    <person id="ped229" type="ped_pedestrian" depart="1145.00">
        <walk edges="C4C3 C3C4 C3B3 B3B2"/>
    </person>
    <person id="ped230" type="ped_pedestrian" depart="1150.00">
        <walk edges="B0B1 B1B0 B1B2 B3B2"/>
    </person>
    <person id="ped231" type="ped_pedestrian" depart="1155.00">
        <walk edges="B3B2 B3C3"/>
    </person>
    <person id="ped232" type="ped_pedestrian" depart="1160.00">
        <walk edges="C2D2 B2C2 B1B2"/>
    </person>
    <person id="ped233" type="ped_pedestrian" depart="1165.00">
        <walk edges="B2C2 C2C1 C1D1 D1D0"/>
    </person>
    <person id="ped234" type="ped_pedestrian" depart="1170.00">
        <walk edges="D1D0 C1D1 C1B1 B1B0 B0B1"/>
    </person>
    <person id="ped235" type="ped_pedestrian" depart="1175.00">
        <walk edges="C1C0 C2C1 C2C3 C3B3"/>
    </person>
    <person id="ped236" type="ped_pedestrian" depart="1180.00">
        <walk edges="C1C0 B1C1 B2B1"/>
    </person>
    <person id="ped237" type="ped_pedestrian" depart="1185.00">
        <walk edges="C1C2 C2C3 C3D3 D3E3"/>
    </person>
    <person id="ped238" type="ped_pedestrian" depart="1190.00">
        <walk edges="C3C4 C2C3 C2C1 C1D1 D1D0"/>
    </person>
    <person id="ped239" type="ped_pedestrian" depart="1195.00">
        <walk edges="D3D2 D2C2"/>
    </person>
    <person id="ped240" type="ped_pedestrian" depart="1200.00">
        <walk edges="C1B1 B1A1 A1B1"/>
    </person>
    <person id="ped241" type="ped_pedestrian" depart="1205.00">
        <walk edges="B4B3 B3B4 B3B2 B2C2 D2C2"/>
    </person>
    <person id="ped242" type="ped_pedestrian" depart="1210.00">