<?xml version="1.0" encoding="UTF-8"?>

<!-- generated on Wed May 27 06:42:21 2020 by Eclipse SUMO duarouter Version 1.6.0
<configuration xmlns:xsi="http://www.w3.org/2001/XMLSchema-instance" xsi:noNamespaceSchemaLocation="http://sumo.dlr.de/xsd/duarouterConfiguration.xsd">

    <input>
        <net-file value="optimal3.net.xml"/>
        <route-files value="optimal.motorcycle.trips.xml"/>
    </input>

    <output>
        <output-file value="optimal.motorcycle.rou.xml"/>
        <alternatives-output value="optimal.motorcycle.rou.alt.xml"/>
    </output>

    <time>
        <begin value="0"/>
        <end value="1800.0"/>
    </time>

    <report>
        <no-warnings value="true"/>
        <ignore-errors value="true"/>
        <no-step-log value="true"/>
    </report>

</configuration>
-->

<routes xmlns:xsi="http://www.w3.org/2001/XMLSchema-instance" xsi:noNamespaceSchemaLocation="http://sumo.dlr.de/xsd/routes_file.xsd">
    <vType id="moto_motorcycle" vClass="motorcycle"/>
    <vehicle id="moto0" type="moto_motorcycle" depart="0.00" departLane="best" departSpeed="max">
        <route edges="C4C3 C3C2 C2C1 C1B1 B1A1"/>
    </vehicle>
    <vehicle id="moto1" type="moto_motorcycle" depart="18.00" departLane="best">
        <route edges="B3B2 B2C2"/>
    </vehicle>
    <vehicle id="moto2" type="moto_motorcycle" depart="36.00" departLane="best">
        <route edges="D2C2 C2C1 C1D1 D1D0"/>
    </vehicle>
    <vehicle id="moto3" type="moto_motorcycle" depart="54.00" departLane="best" departSpeed="max">
        <route edges="E1D1 D1C1 C1B1 B1B2"/>
    </vehicle>
    <vehicle id="moto4" type="moto_motorcycle" depart="72.00" departLane="best">
        <route edges="C1C2 C2B2 B2B1 B1A1"/>
    </vehicle>
    <vehicle id="moto5" type="moto_motorcycle" depart="90.00" departLane="best">
        <route edges="B2B1 B1C1 C1C2 C2C3"/>
    </vehicle>
    <vehicle id="moto6" type="moto_motorcycle" depart="108.00" departLane="best" departSpeed="max">
        <route edges="A1B1 B1B2 B2B3"/>
    </vehicle>
    <vehicle id="moto7" type="moto_motorcycle" depart="126.00" departLane="best" departSpeed="max">
        <route edges="D0D1 D1D2 D2D3 D3C3 C3B3"/>
    </vehicle>
    <vehicle id="moto8" type="moto_motorcycle" depart="144.00" departLane="best">
        <route edges="B2B1 B1C1 C1C2 C2C3 C3C4"/>
    </vehicle>
    <vehicle id="moto9" type="moto_motorcycle" depart="162.00" departLane="best">
        <route edges="D3C3 C3C2 C2C1 C1B1 B1A1"/>
    </vehicle>
    <vehicle id="moto10" type="moto_motorcycle" depart="180.00" departLane="best">
        <route edges="D3C3 C3C2 C2D2 D2D1 D1D0"/>
    </vehicle>
    <vehicle id="moto11" type="moto_motorcycle" depart="198.00" departLane="best" departSpeed="max">
        <route edges="B4B3 B3B2 B2A2"/>
    </vehicle>
    <vehicle id="moto12" type="moto_motorcycle" depart="216.00" departLane="best" departSpeed="max">
        <route edges="E2D2 D2C2 C2B2 B2B3 B3C3"/>
    </vehicle>
    <vehicle id="moto13" type="moto_motorcycle" depart="234.00" departLane="best" departSpeed="max">
        <route edges="A3B3 B3C3 C3C2 C2C1 C1B1 B1B2"/>
    </vehicle>
    <vehicle id="moto14" type="moto_motorcycle" depart="252.00" departLane="best" departSpeed="max">
        <route edges="D4D3 D3C3 C3C4"/>
    </vehicle>
    <vehicle id="moto15" type="moto_motorcycle" depart="270.00" departLane="best">
        <route edges="D3C3 C3C2 C2C1 C1D1 D1E1"/>
    </vehicle>
    <vehicle id="moto16" type="moto_motorcycle" depart="288.00" departLane="best">
        <route edges="C2D2 D2D3 D3E3"/>
    </vehicle>
    <vehicle id="moto17" type="moto_motorcycle" depart="306.00" departLane="best" departSpeed="max">
        <route edges="C0C1 C1C2 C2C3 C3B3"/>
    </vehicle>
    <vehicle id="moto18" type="moto_motorcycle" depart="324.00" departLane="best">
        <route edges="D3D2 D2C2 C2C3 C3C4"/>
    </vehicle>
    <vehicle id="moto19" type="moto_motorcycle" depart="342.00" departLane="best" departSpeed="max">
        <route edges="D4D3 D3C3 C3C2"/>
    </vehicle>
    <vehicle id="moto20" type="moto_motorcycle" depart="360.00" departLane="best">
        <route edges="D1C1 C1B1 B1B0"/>
    </vehicle>
    <vehicle id="moto21" type="moto_motorcycle" depart="378.00" departLane="best">
        <route edges="B2B1 B1C1 C1C2 C2C3 C3B3 B3B2"/>
    </vehicle>
    <vehicle id="moto22" type="moto_motorcycle" depart="396.00" departLane="best" departSpeed="max">
        <route edges="A2B2 B2B3 B3A3"/>
    </vehicle>
    <vehicle id="moto23" type="moto_motorcycle" depart="414.00" departLane="best" departSpeed="max">
        <route edges="A3B3 B3B2"/>
    </vehicle>
    <vehicle id="moto24" type="moto_motorcycle" depart="432.00" departLane="best" departSpeed="max">
        <route edges="C4C3 C3C2 C2C1 C1B1"/>
    </vehicle>
    <vehicle id="moto25" type="moto_motorcycle" depart="450.00" departLane="best" departSpeed="max">
        <route edges="C0C1 C1B1 B1B2 B2C2"/>
    </vehicle>
    <vehicle id="moto26" type="moto_motorcycle" depart="468.00" departLane="best">
        <route edges="B2C2 C2D2 D2D3 D3D4"/>
    </vehicle>
    <vehicle id="moto27" type="moto_motorcycle" depart="486.00" departLane="best" departSpeed="max">
        <route edges="D0D1 D1C1 C1C2 C2C3 C3C4"/>
    </vehicle>
    <vehicle id="moto28" type="moto_motorcycle" depart="504.00" departLane="best">
        <route edges="B1B2 B2C2 C2C1 C1D1 D1D2"/>
    </vehicle>
    <vehicle id="moto29" type="moto_motorcycle" depart="522.00" departLane="best" departSpeed="max">
        <route edges="B0B1 B1C1 C1C0"/>
    </vehicle>
    <vehicle id="moto30" type="moto_motorcycle" depart="540.00" departLane="best" departSpeed="max">
        <route edges="E3D3 D3D2 D2C2 C2C3 C3D3"/>
    </vehicle>
    <vehicle id="moto31" type="moto_motorcycle" depart="558.00" departLane="best">
        <route edges="C3B3 B3B2 B2C2 C2D2 D2D1 D1D0"/>
    </vehicle>
    <vehicle id="moto32" type="moto_motorcycle" depart="576.00" departLane="best" departSpeed="max">
        <route edges="D4D3 D3D2 D2C2"/>
    </vehicle>
    <vehicle id="moto33" type="moto_motorcycle" depart="594.00" departLane="best">
        <route edges="B2B1 B1A1"/>
    </vehicle>
    <vehicle id="moto34" type="moto_motorcycle" depart="612.00" departLane="best" departSpeed="max">
        <route edges="B4B3 B3A3"/>
    </vehicle>
    <vehicle id="moto35" type="moto_motorcycle" depart="630.00" departLane="best">
        <route edges="B2B1 B1C1 C1D1 D1D2 D2D3 D3D4"/>
    </vehicle>
    <vehicle id="moto36" type="moto_motorcycle" depart="648.00" departLane="best" departSpeed="max">
        <route edges="E1D1 D1C1 C1B1 B1B2 B2B3 B3B4"/>
    </vehicle>
    <vehicle id="moto37" type="moto_motorcycle" depart="666.00" departLane="best" departSpeed="max">
        <route edges="D0D1 D1C1 C1C0"/>
    </vehicle>
    <vehicle id="moto38" type="moto_motorcycle" depart="684.00" departLane="best" departSpeed="max">
        <route edges="E1D1 D1C1 C1C2 C2B2"/>
    </vehicle>
    <vehicle id="moto39" type="moto_motorcycle" depart="702.00" departLane="best">
        <route edges="B2C2 C2C3 C3B3 B3A3"/>
    </vehicle>
    <vehicle id="moto40" type="moto_motorcycle" depart="720.00" departLane="best">
        <route edges="C3B3 B3A3"/>
    </vehicle>
    <vehicle id="moto41" type="moto_motorcycle" depart="738.00" departLane="best">
        <route edges="C3D3 D3D2"/>
    </vehicle>
    <vehicle id="moto42" type="moto_motorcycle" depart="756.00" departLane="best">
        <route edges="C1B1 B1B2 B2C2"/>
    </vehicle>
    <vehicle id="moto43" type="moto_motorcycle" depart="774.00" departLane="best" departSpeed="max">
        <route edges="E3D3 D3D2 D2C2 C2C3"/>
    </vehicle>
    <vehicle id="moto44" type="moto_motorcycle" depart="792.00" departLane="best" departSpeed="max">
        <route edges="A3B3 B3B2 B2B1 B1B0"/>
    </vehicle>
    <vehicle id="moto45" type="moto_motorcycle" depart="810.00" departLane="best" departSpeed="max">
        <route edges="A3B3 B3C3 C3D3"/>
    </vehicle>
    <vehicle id="moto46" type="moto_motorcycle" depart="828.00" departLane="best">
        <route edges="D3C3 C3C2 C2D2 D2D1 D1C1 C1C2"/>
    </vehicle>
    <vehicle id="moto47" type="moto_motorcycle" depart="846.00" departLane="best" departSpeed="max">
        <route edges="A2B2 B2C2 C2C1 C1C0"/>
    </vehicle>
    <vehicle id="moto48" type="moto_motorcycle" depart="864.00" departLane="best" departSpeed="max">
        <route edges="E3D3 D3C3 C3C2 C2D2"/>
    </vehicle>
    <vehicle id="moto49" type="moto_motorcycle" depart="882.00" departLane="best" departSpeed="max">
        <route edges="E3D3 D3D2 D2E2"/>
    </vehicle>
    <vehicle id="moto50" type="moto_motorcycle" depart="900.00" departLane="best" departSpeed="max">
        <route edges="A1B1 B1C1 C1D1 D1D2"/>
    </vehicle>
    <vehicle id="moto51" type="moto_motorcycle" depart="918.00" departLane="best" departSpeed="max">
        <route edges="D0D1 D1C1 C1C2 C2D2"/>
    </vehicle>
    <vehicle id="moto52" type="moto_motorcycle" depart="936.00" departLane="best">
        <route edges="B2C2 C2C3 C3D3"/>
    </vehicle>
    <vehicle id="moto53" type="moto_motorcycle" depart="954.00" departLane="best" departSpeed="max">
        <route edges="A3B3 B3B2 B2B1 B1C1 C1C2"/>
    </vehicle>
    <vehicle id="moto54" type="moto_motorcycle" depart="972.00" departLane="best">
        <route edges="C1D1 D1D2 D2D3 D3D4"/>
    </vehicle>
    <vehicle id="moto55" type="moto_motorcycle" depart="990.00" departLane="best" departSpeed="max">
        <route edges="E1D1 D1C1 C1C2 C2C3 C3B3 B3A3"/>
    </vehicle>
    <vehicle id="moto56" type="moto_motorcycle" depart="1008.00" departLane="best">
        <route edges="C2C3 C3B3 B3B2 B2B1"/>
    </vehicle>
    <vehicle id="moto57" type="moto_motorcycle" depart="1026.00" departLane="best" departSpeed="max">
        <route edges="E1D1 D1D2 D2E2"/>
    </vehicle>
    <vehicle id="moto58" type="moto_motorcycle" depart="1044.00" departLane="best">
        <route edges="B3C3 C3D3"/>
    </vehicle>
    <vehicle id="moto59" type="moto_motorcycle" depart="1062.00" departLane="best" departSpeed="max">
        <route edges="C4C3 C3C2 C2B2 B2A2"/>
    </vehicle>
    <vehicle id="moto60" type="moto_motorcycle" depart="1080.00" departLane="best">
        <route edges="D2D1 D1C1 C1C2 C2D2"/>
    </vehicle>
    <vehicle id="moto61" type="moto_motorcycle" depart="1098.00" departLane="best">
        <route edges="D2D3 D3C3 C3C2 C2D2"/>
    </vehicle>
    <vehicle id="moto62" type="moto_motorcycle" depart="1116.00" departLane="best" departSpeed="max">
        <route edges="A1B1 B1B2 B2B3 B3B4"/>
    </vehicle>
    <vehicle id="moto63" type="moto_motorcycle" depart="1134.00" departLane="best" departSpeed="max">
        <route edges="A1B1 B1C1 C1D1 D1D2 D2D3 D3D4"/>
    </vehicle>
    <vehicle id="moto64" type="moto_motorcycle" depart="1152.00" departLane="best" departSpeed="max">
        <route edges="E1D1 D1D2 D2D3"/>
    </vehicle>
    <vehicle id="moto65" type="moto_motorcycle" depart="1170.00" departLane="best">
        <route edges="B3C3 C3C2 C2B2 B2B1 B1B0"/>
    </vehicle>
    <vehicle id="moto66" type="moto_motorcycle" depart="1188.00" departLane="best" departSpeed="max">
        <route edges="E1D1 D1D2 D2D3 D3D4"/>
    </vehicle>
    <vehicle id="moto67" type="moto_motorcycle" depart="1206.00" departLane="best" departSpeed="max">
        <route edges="A3B3 B3C3 C3C2 C2C1"/>
    </vehicle>
    <vehicle id="moto68" type="moto_motorcycle" depart="1224.00" departLane="best" departSpeed="max">
        <route edges="A2B2 B2C2 C2C1 C1D1 D1E1"/>
    </vehicle>
    <vehicle id="moto69" type="moto_motorcycle" depart="1242.00" departLane="best">
        <route edges="D2D1 D1C1 C1C2 C2B2 B2A2"/>
    </vehicle>
    <vehicle id="moto70" type="moto_motorcycle" depart="1260.00" departLane="best">
        <route edges="C2B2 B2B1 B1C1 C1C2 C2C3 C3B3"/>
    </vehicle>
    <vehicle id="moto71" type="moto_motorcycle" depart="1278.00" departLane="best">
        <route edges="B2C2 C2D2 D2E2"/>
    </vehicle>
    <vehicle id="moto72" type="moto_motorcycle" depart="1296.00" departLane="best">
        <route edges="C1C2 C2C3 C3B3 B3B2 B2C2"/>
    </vehicle>
    <vehicle id="moto73" type="moto_motorcycle" depart="1314.00" departLane="best">
        <route edges="C2D2 D2D1 D1E1"/>
    </vehicle>
    <vehicle id="moto74" type="moto_motorcycle" depart="1332.00" departLane="best">
        <route edges="B1C1 C1C2 C2B2 B2B3 B3B4"/>
    </vehicle>
    <vehicle id="moto75" type="moto_motorcycle" depart="1350.00" departLane="best" departSpeed="max">
        <route edges="E3D3 D3D2 D2D1 D1C1"/>
    </vehicle>
    <vehicle id="moto76" type="moto_motorcycle" depart="1368.00" departLane="best">
        <route edges="C1D1 D1D2 D2C2 C2C3"/>
    </vehicle>
    <vehicle id="moto77" type="moto_motorcycle" depart="1386.00" departLane="best" departSpeed="max">
        <route edges="A3B3 B3B2 B2C2"/>
    </vehicle>
    <vehicle id="moto78" type="moto_motorcycle" depart="1404.00" departLane="best" departSpeed="max">
        <route edges="B4B3 B3C3 C3C4"/>
    </vehicle>
    <vehicle id="moto79" type="moto_motorcycle" depart="1422.00" departLane="best">
        <route edges="B2B3 B3C3 C3C2 C2C1 C1B1 B1B2 B2C2"/>
    </vehicle>
    <vehicle id="moto80" type="moto_motorcycle" depart="1440.00" departLane="best" departSpeed="max">
        <route edges="A2B2 B2B3 B3C3 C3D3"/>
    </vehicle>
    <vehicle id="moto81" type="moto_motorcycle" depart="1458.00" departLane="best">
        <route edges="B2B1 B1C1 C1C2 C2C3 C3D3 D3D2"/>
    </vehicle>
    <vehicle id="moto82" type="moto_motorcycle" depart="1476.00" departLane="best" departSpeed="max">
        <route edges="D4D3 D3D2 D2C2 C2B2 B2B1 B1B0"/>
    </vehicle>
    <vehicle id="moto83" type="moto_motorcycle" depart="1494.00" departLane="best">
        <route edges="B2B3 B3C3 C3D3 D3D2 D2D1 D1D0"/>
    </vehicle>
    <vehicle id="moto84" type="moto_motorcycle" depart="1512.00" departLane="best">
        <route edges="B2B1 B1C1 C1C2 C2B2 B2A2"/>
    </vehicle>
    <vehicle id="moto85" type="moto_motorcycle" depart="1530.00" departLane="best" departSpeed="max">
        <route edges="E2D2 D2D3 D3C3 C3C2"/>
    </vehicle>
    <vehicle id="moto86" type="moto_motorcycle" depart="1548.00" departLane="best">
        <route edges="C2B2 B2B3 B3C3 C3D3 D3D2 D2C2"/>
    </vehicle>
    <vehicle id="moto87" type="moto_motorcycle" depart="1566.00" departLane="best">
        <route edges="D3C3 C3C2 C2B2 B2B3"/>
    </vehicle>
    <vehicle id="moto88" type="moto_motorcycle" depart="1584.00" departLane="best" departSpeed="max">
        <route edges="A3B3 B3B2 B2B1 B1C1 C1C2"/>
    </vehicle>
    <vehicle id="moto89" type="moto_motorcycle" depart="1602.00" departLane="best">
        <route edges="C1C2 C2B2"/>
    </vehicle>
    <vehicle id="moto90" type="moto_motorcycle" depart="1620.00" departLane="best">
        <route edges="D1D2 D2C2 C2C1 C1D1 D1D0"/>
    </vehicle>
    <vehicle id="moto91" type="moto_motorcycle" depart="1638.00" departLane="best" departSpeed="max">
        <route edges="E3D3 D3D2 D2D1 D1C1 C1B1 B1B2"/>
    </vehicle>
    <vehicle id="moto92" type="moto_motorcycle" depart="1656.00" departLane="best">
        <route edges="C1B1 B1B2 B2B3 B3C3"/>
    </vehicle>
    <vehicle id="moto93" type="moto_motorcycle" depart="1674.00" departLane="best" departSpeed="max">
        <route edges="D4D3 D3C3 C3B3 B3A3"/>
    </vehicle>
    <vehicle id="moto94" type="moto_motorcycle" depart="1692.00" departLane="best">
        <route edges="B1C1 C1D1"/>
    </vehicle>
    <vehicle id="moto95" type="moto_motorcycle" depart="1710.00" departLane="best">
        <route edges="C1C2 C2C3 C3B3 B3B2"/>
    </vehicle>
    <vehicle id="moto96" type="moto_motorcycle" depart="1728.00" departLane="best">
        <route edges="B2B3 B3C3 C3D3 D3D4"/>
    </vehicle>
    <vehicle id="moto97" type="moto_motorcycle" depart="1746.00" departLane="best">
        <route edges="C1D1 D1D2 D2E2"/>
    </vehicle>
    <vehicle id="moto98" type="moto_motorcycle" depart="1764.00" departLane="best">
        <route edges="C3B3 B3B2 B2B1 B1B0"/>
    </vehicle>
    <vehicle id="moto99" type="moto_motorcycle" depart="1782.00" departLane="best" departSpeed="max">
        <route edges="E3D3 D3D2 D2E2"/>
    </vehicle>
</routes>
