<?xml version="1.0" encoding="UTF-8"?>

<!-- generated on 04/28/20 20:27:06 by Eclipse SUMO duarouter Version 1.3.1
<configuration xmlns:xsi="http://www.w3.org/2001/XMLSchema-instance" xsi:noNamespaceSchemaLocation="http://sumo.dlr.de/xsd/duarouterConfiguration.xsd">

    <input>
        <net-file value="optimal3.net.xml"/>
        <route-files value="optimal.motorcycle.trips.xml"/>
    </input>

    <output>
        <output-file value="optimal.motorcycle.rou.xml"/>
        <alternatives-output value="optimal.motorcycle.rou.alt.xml"/>
    </output>

    <time>
        <begin value="0"/>
        <end value="3600.0"/>
    </time>

    <report>
        <no-warnings value="true"/>
        <ignore-errors value="true"/>
        <no-step-log value="true"/>
    </report>

</configuration>
-->

<routes xmlns:xsi="http://www.w3.org/2001/XMLSchema-instance" xsi:noNamespaceSchemaLocation="http://sumo.dlr.de/xsd/routes_file.xsd">
    <vType id="moto_motorcycle" vClass="motorcycle"/>
    <vehicle id="moto0" type="moto_motorcycle" depart="0.00" departLane="best" departSpeed="max">
        <route edges="C4C3 C3C2 C2C1 C1B1 B1A1"/>
    </vehicle>
    <vehicle id="moto1" type="moto_motorcycle" depart="13.54" departLane="best">
        <route edges="B3B2 B2C2"/>
    </vehicle>
    <vehicle id="moto2" type="moto_motorcycle" depart="27.08" departLane="best">
        <route edges="D2C2 C2C1 C1D1 D1D0"/>
    </vehicle>
    <vehicle id="moto3" type="moto_motorcycle" depart="40.62" departLane="best" departSpeed="max">
        <route edges="E1D1 D1C1 C1B1 B1B2"/>
    </vehicle>
    <vehicle id="moto4" type="moto_motorcycle" depart="54.17" departLane="best">
        <route edges="C1C2 C2B2 B2B1 B1A1"/>
    </vehicle>
    <vehicle id="moto5" type="moto_motorcycle" depart="67.71" departLane="best">
        <route edges="B2B1 B1C1 C1C2 C2C3"/>
    </vehicle>
    <vehicle id="moto6" type="moto_motorcycle" depart="81.25" departLane="best" departSpeed="max">
        <route edges="A1B1 B1B2 B2B3"/>
    </vehicle>
    <vehicle id="moto7" type="moto_motorcycle" depart="94.79" departLane="best" departSpeed="max">
        <route edges="D0D1 D1D2 D2D3 D3C3 C3B3"/>
    </vehicle>
    <vehicle id="moto8" type="moto_motorcycle" depart="108.33" departLane="best">
        <route edges="B2B1 B1C1 C1C2 C2C3 C3C4"/>
    </vehicle>
    <vehicle id="moto9" type="moto_motorcycle" depart="121.87" departLane="best">
        <route edges="D3C3 C3C2 C2C1 C1B1 B1A1"/>
    </vehicle>
    <vehicle id="moto10" type="moto_motorcycle" depart="135.42" departLane="best">
        <route edges="D3C3 C3C2 C2D2 D2D1 D1D0"/>
    </vehicle>
    <vehicle id="moto11" type="moto_motorcycle" depart="148.96" departLane="best" departSpeed="max">
        <route edges="B4B3 B3B2 B2A2"/>
    </vehicle>
    <vehicle id="moto12" type="moto_motorcycle" depart="162.50" departLane="best" departSpeed="max">
        <route edges="E2D2 D2C2 C2B2 B2B3 B3C3"/>
    </vehicle>
    <vehicle id="moto13" type="moto_motorcycle" depart="176.04" departLane="best" departSpeed="max">
        <route edges="A3B3 B3C3 C3C2 C2C1 C1B1 B1B2"/>
    </vehicle>
    <vehicle id="moto14" type="moto_motorcycle" depart="189.58" departLane="best" departSpeed="max">
        <route edges="D4D3 D3C3 C3C4"/>
    </vehicle>
    <vehicle id="moto15" type="moto_motorcycle" depart="203.12" departLane="best">
        <route edges="D3C3 C3C2 C2C1 C1D1 D1E1"/>
    </vehicle>
    <vehicle id="moto16" type="moto_motorcycle" depart="216.67" departLane="best">
        <route edges="C2D2 D2D3 D3E3"/>
    </vehicle>
    <vehicle id="moto17" type="moto_motorcycle" depart="230.21" departLane="best" departSpeed="max">
        <route edges="C0C1 C1C2 C2C3 C3B3"/>
    </vehicle>
    <vehicle id="moto18" type="moto_motorcycle" depart="243.75" departLane="best">
        <route edges="D3D2 D2C2 C2C3 C3C4"/>
    </vehicle>
    <vehicle id="moto19" type="moto_motorcycle" depart="257.29" departLane="best" departSpeed="max">
        <route edges="D4D3 D3C3 C3C2"/>
    </vehicle>
    <vehicle id="moto20" type="moto_motorcycle" depart="270.83" departLane="best">
        <route edges="D1C1 C1B1 B1B0"/>
    </vehicle>
    <vehicle id="moto21" type="moto_motorcycle" depart="284.37" departLane="best">
        <route edges="B2B1 B1C1 C1C2 C2C3 C3B3 B3B2"/>
    </vehicle>
    <vehicle id="moto22" type="moto_motorcycle" depart="297.92" departLane="best" departSpeed="max">
        <route edges="A2B2 B2B3 B3A3"/>
    </vehicle>
    <vehicle id="moto23" type="moto_motorcycle" depart="311.46" departLane="best" departSpeed="max">
        <route edges="A3B3 B3B2"/>
    </vehicle>
    <vehicle id="moto24" type="moto_motorcycle" depart="325.00" departLane="best" departSpeed="max">
        <route edges="C4C3 C3C2 C2C1 C1B1"/>
    </vehicle>
    <vehicle id="moto25" type="moto_motorcycle" depart="338.54" departLane="best" departSpeed="max">
        <route edges="C0C1 C1B1 B1B2 B2C2"/>
    </vehicle>
    <vehicle id="moto26" type="moto_motorcycle" depart="352.08" departLane="best">
        <route edges="B2C2 C2D2 D2D3 D3D4"/>
    </vehicle>
    <vehicle id="moto27" type="moto_motorcycle" depart="365.62" departLane="best" departSpeed="max">
        <route edges="D0D1 D1C1 C1C2 C2C3 C3C4"/>
    </vehicle>
    <vehicle id="moto28" type="moto_motorcycle" depart="379.16" departLane="best">
        <route edges="B1B2 B2C2 C2C1 C1D1 D1D2"/>
    </vehicle>
    <vehicle id="moto29" type="moto_motorcycle" depart="392.71" departLane="best" departSpeed="max">
        <route edges="B0B1 B1C1 C1C0"/>
    </vehicle>
    <vehicle id="moto30" type="moto_motorcycle" depart="406.25" departLane="best" departSpeed="max">
        <route edges="E3D3 D3D2 D2C2 C2C3 C3D3"/>
    </vehicle>
    <vehicle id="moto31" type="moto_motorcycle" depart="419.79" departLane="best">
        <route edges="C3B3 B3B2 B2C2 C2D2 D2D1 D1D0"/>
    </vehicle>
    <vehicle id="moto32" type="moto_motorcycle" depart="433.33" departLane="best" departSpeed="max">
        <route edges="D4D3 D3D2 D2C2"/>
    </vehicle>
    <vehicle id="moto33" type="moto_motorcycle" depart="446.87" departLane="best">
        <route edges="B2B1 B1A1"/>
    </vehicle>
    <vehicle id="moto34" type="moto_motorcycle" depart="460.41" departLane="best" departSpeed="max">
        <route edges="B4B3 B3A3"/>
    </vehicle>
    <vehicle id="moto35" type="moto_motorcycle" depart="473.96" departLane="best">
        <route edges="B2B1 B1C1 C1D1 D1D2 D2D3 D3D4"/>
    </vehicle>
    <vehicle id="moto36" type="moto_motorcycle" depart="487.50" departLane="best" departSpeed="max">
        <route edges="E1D1 D1C1 C1B1 B1B2 B2B3 B3B4"/>
    </vehicle>
    <vehicle id="moto37" type="moto_motorcycle" depart="501.04" departLane="best" departSpeed="max">
        <route edges="D0D1 D1C1 C1C0"/>
    </vehicle>
    <vehicle id="moto38" type="moto_motorcycle" depart="514.58" departLane="best" departSpeed="max">
        <route edges="E1D1 D1C1 C1C2 C2B2"/>
    </vehicle>
    <vehicle id="moto39" type="moto_motorcycle" depart="528.12" departLane="best">
        <route edges="B2C2 C2C3 C3B3 B3A3"/>
    </vehicle>
    <vehicle id="moto40" type="moto_motorcycle" depart="541.66" departLane="best">
        <route edges="C3B3 B3A3"/>
    </vehicle>
    <vehicle id="moto41" type="moto_motorcycle" depart="555.21" departLane="best">
        <route edges="C3D3 D3D2"/>
    </vehicle>
    <vehicle id="moto42" type="moto_motorcycle" depart="568.75" departLane="best">
        <route edges="C1B1 B1B2 B2C2"/>
    </vehicle>
    <vehicle id="moto43" type="moto_motorcycle" depart="582.29" departLane="best" departSpeed="max">
        <route edges="E3D3 D3D2 D2C2 C2C3"/>
    </vehicle>
    <vehicle id="moto44" type="moto_motorcycle" depart="595.83" departLane="best" departSpeed="max">
        <route edges="A3B3 B3B2 B2B1 B1B0"/>
    </vehicle>
    <vehicle id="moto45" type="moto_motorcycle" depart="609.37" departLane="best" departSpeed="max">
        <route edges="A3B3 B3C3 C3D3"/>
    </vehicle>
    <vehicle id="moto46" type="moto_motorcycle" depart="622.91" departLane="best">
        <route edges="D3C3 C3C2 C2D2 D2D1 D1C1 C1C2"/>
    </vehicle>
    <vehicle id="moto47" type="moto_motorcycle" depart="636.46" departLane="best" departSpeed="max">
        <route edges="A2B2 B2C2 C2C1 C1C0"/>
    </vehicle>
    <vehicle id="moto48" type="moto_motorcycle" depart="650.00" departLane="best" departSpeed="max">
        <route edges="E3D3 D3C3 C3C2 C2D2"/>
    </vehicle>
    <vehicle id="moto49" type="moto_motorcycle" depart="663.54" departLane="best" departSpeed="max">
        <route edges="E3D3 D3D2 D2E2"/>
    </vehicle>
    <vehicle id="moto50" type="moto_motorcycle" depart="677.08" departLane="best" departSpeed="max">
        <route edges="A1B1 B1C1 C1D1 D1D2"/>
    </vehicle>
    <vehicle id="moto51" type="moto_motorcycle" depart="690.62" departLane="best" departSpeed="max">
        <route edges="D0D1 D1C1 C1C2 C2D2"/>
    </vehicle>
    <vehicle id="moto52" type="moto_motorcycle" depart="704.16" departLane="best">
        <route edges="B2C2 C2C3 C3D3"/>
    </vehicle>
    <vehicle id="moto53" type="moto_motorcycle" depart="717.70" departLane="best" departSpeed="max">
        <route edges="A3B3 B3B2 B2B1 B1C1 C1C2"/>
    </vehicle>
    <vehicle id="moto54" type="moto_motorcycle" depart="731.25" departLane="best">
        <route edges="C1D1 D1D2 D2D3 D3D4"/>
    </vehicle>
    <vehicle id="moto55" type="moto_motorcycle" depart="744.79" departLane="best" departSpeed="max">
        <route edges="E1D1 D1C1 C1C2 C2C3 C3B3 B3A3"/>
    </vehicle>
    <vehicle id="moto56" type="moto_motorcycle" depart="758.33" departLane="best">
        <route edges="C2C3 C3B3 B3B2 B2B1"/>
    </vehicle>
    <vehicle id="moto57" type="moto_motorcycle" depart="771.87" departLane="best" departSpeed="max">
        <route edges="E1D1 D1D2 D2E2"/>
    </vehicle>
    <vehicle id="moto58" type="moto_motorcycle" depart="785.41" departLane="best">
        <route edges="B3C3 C3D3"/>
    </vehicle>
    <vehicle id="moto59" type="moto_motorcycle" depart="798.95" departLane="best" departSpeed="max">
        <route edges="C4C3 C3C2 C2B2 B2A2"/>
    </vehicle>
    <vehicle id="moto60" type="moto_motorcycle" depart="812.50" departLane="best">
        <route edges="D2D1 D1C1 C1C2 C2D2"/>
    </vehicle>
    <vehicle id="moto61" type="moto_motorcycle" depart="826.04" departLane="best">
        <route edges="D2D3 D3C3 C3C2 C2D2"/>
    </vehicle>
    <vehicle id="moto62" type="moto_motorcycle" depart="839.58" departLane="best" departSpeed="max">
        <route edges="A1B1 B1B2 B2B3 B3B4"/>
    </vehicle>
    <vehicle id="moto63" type="moto_motorcycle" depart="853.12" departLane="best" departSpeed="max">
        <route edges="A1B1 B1C1 C1D1 D1D2 D2D3 D3D4"/>
    </vehicle>
    <vehicle id="moto64" type="moto_motorcycle" depart="866.66" departLane="best" departSpeed="max">
        <route edges="E1D1 D1D2 D2D3"/>
    </vehicle>
    <vehicle id="moto65" type="moto_motorcycle" depart="880.20" departLane="best">
        <route edges="B3C3 C3C2 C2B2 B2B1 B1B0"/>
    </vehicle>
    <vehicle id="moto66" type="moto_motorcycle" depart="893.75" departLane="best" departSpeed="max">
        <route edges="E1D1 D1D2 D2D3 D3D4"/>
    </vehicle>
    <vehicle id="moto67" type="moto_motorcycle" depart="907.29" departLane="best" departSpeed="max">
        <route edges="A3B3 B3C3 C3C2 C2C1"/>
    </vehicle>
    <vehicle id="moto68" type="moto_motorcycle" depart="920.83" departLane="best" departSpeed="max">
        <route edges="A2B2 B2C2 C2C1 C1D1 D1E1"/>
    </vehicle>
    <vehicle id="moto69" type="moto_motorcycle" depart="934.37" departLane="best">
        <route edges="D2D1 D1C1 C1C2 C2B2 B2A2"/>
    </vehicle>
    <vehicle id="moto70" type="moto_motorcycle" depart="947.91" departLane="best">
        <route edges="C2B2 B2B1 B1C1 C1C2 C2C3 C3B3"/>
    </vehicle>
    <vehicle id="moto71" type="moto_motorcycle" depart="961.45" departLane="best">
        <route edges="B2C2 C2D2 D2E2"/>
    </vehicle>
    <vehicle id="moto72" type="moto_motorcycle" depart="975.00" departLane="best">
        <route edges="C1C2 C2C3 C3B3 B3B2 B2C2"/>
    </vehicle>
    <vehicle id="moto73" type="moto_motorcycle" depart="988.54" departLane="best">
        <route edges="C2D2 D2D1 D1E1"/>
    </vehicle>
    <vehicle id="moto74" type="moto_motorcycle" depart="1002.08" departLane="best">
        <route edges="B1C1 C1C2 C2B2 B2B3 B3B4"/>
    </vehicle>
    <vehicle id="moto75" type="moto_motorcycle" depart="1015.62" departLane="best" departSpeed="max">
        <route edges="E3D3 D3D2 D2D1 D1C1"/>
    </vehicle>
    <vehicle id="moto76" type="moto_motorcycle" depart="1029.16" departLane="best">
        <route edges="C1D1 D1D2 D2C2 C2C3"/>
    </vehicle>
    <vehicle id="moto77" type="moto_motorcycle" depart="1042.70" departLane="best" departSpeed="max">
        <route edges="A3B3 B3B2 B2C2"/>
    </vehicle>
    <vehicle id="moto78" type="moto_motorcycle" depart="1056.25" departLane="best" departSpeed="max">
        <route edges="B4B3 B3C3 C3C4"/>
    </vehicle>
    <vehicle id="moto79" type="moto_motorcycle" depart="1069.79" departLane="best">
        <route edges="B2B3 B3C3 C3C2 C2C1 C1B1 B1B2 B2C2"/>
    </vehicle>
    <vehicle id="moto80" type="moto_motorcycle" depart="1083.33" departLane="best" departSpeed="max">
        <route edges="A2B2 B2B3 B3C3 C3D3"/>
    </vehicle>
    <vehicle id="moto81" type="moto_motorcycle" depart="1096.87" departLane="best">
        <route edges="B2B1 B1C1 C1C2 C2C3 C3D3 D3D2"/>
    </vehicle>
    <vehicle id="moto82" type="moto_motorcycle" depart="1110.41" departLane="best" departSpeed="max">
        <route edges="D4D3 D3D2 D2C2 C2B2 B2B1 B1B0"/>
    </vehicle>
    <vehicle id="moto83" type="moto_motorcycle" depart="1123.95" departLane="best">
        <route edges="B2B3 B3C3 C3D3 D3D2 D2D1 D1D0"/>
    </vehicle>
    <vehicle id="moto84" type="moto_motorcycle" depart="1137.49" departLane="best">
        <route edges="B2B1 B1C1 C1C2 C2B2 B2A2"/>
    </vehicle>
    <vehicle id="moto85" type="moto_motorcycle" depart="1151.04" departLane="best" departSpeed="max">
        <route edges="E2D2 D2D3 D3C3 C3C2"/>
    </vehicle>
    <vehicle id="moto86" type="moto_motorcycle" depart="1164.58" departLane="best">
        <route edges="C2B2 B2B3 B3C3 C3D3 D3D2 D2C2"/>
    </vehicle>
    <vehicle id="moto87" type="moto_motorcycle" depart="1178.12" departLane="best">
        <route edges="D3C3 C3C2 C2B2 B2B3"/>
    </vehicle>
    <vehicle id="moto88" type="moto_motorcycle" depart="1191.66" departLane="best" departSpeed="max">
        <route edges="A3B3 B3B2 B2B1 B1C1 C1C2"/>
    </vehicle>
    <vehicle id="moto89" type="moto_motorcycle" depart="1205.20" departLane="best">
        <route edges="C1C2 C2B2"/>
    </vehicle>
    <vehicle id="moto90" type="moto_motorcycle" depart="1218.74" departLane="best">
        <route edges="D1D2 D2C2 C2C1 C1D1 D1D0"/>
    </vehicle>
    <vehicle id="moto91" type="moto_motorcycle" depart="1232.29" departLane="best" departSpeed="max">
        <route edges="E3D3 D3D2 D2D1 D1C1 C1B1 B1B2"/>
    </vehicle>
    <vehicle id="moto92" type="moto_motorcycle" depart="1245.83" departLane="best">
        <route edges="C1B1 B1B2 B2B3 B3C3"/>
    </vehicle>
    <vehicle id="moto93" type="moto_motorcycle" depart="1259.37" departLane="best" departSpeed="max">
        <route edges="D4D3 D3C3 C3B3 B3A3"/>
    </vehicle>
    <vehicle id="moto94" type="moto_motorcycle" depart="1272.91" departLane="best">
        <route edges="B1C1 C1D1"/>
    </vehicle>
    <vehicle id="moto95" type="moto_motorcycle" depart="1286.45" departLane="best">
        <route edges="C1C2 C2C3 C3B3 B3B2"/>
    </vehicle>
    <vehicle id="moto96" type="moto_motorcycle" depart="1299.99" departLane="best">
        <route edges="B2B3 B3C3 C3D3 D3D4"/>
    </vehicle>
    <vehicle id="moto97" type="moto_motorcycle" depart="1313.54" departLane="best">
        <route edges="C1D1 D1D2 D2E2"/>
    </vehicle>
    <vehicle id="moto98" type="moto_motorcycle" depart="1327.08" departLane="best">
        <route edges="C3B3 B3B2 B2B1 B1B0"/>
    </vehicle>
    <vehicle id="moto99" type="moto_motorcycle" depart="1340.62" departLane="best" departSpeed="max">
        <route edges="E3D3 D3D2 D2E2"/>
    </vehicle>
    <vehicle id="moto100" type="moto_motorcycle" depart="1354.16" departLane="best" departSpeed="max">
        <route edges="E3D3 D3D4"/>
    </vehicle>
    <vehicle id="moto101" type="moto_motorcycle" depart="1367.70" departLane="best" departSpeed="max">
        <route edges="D4D3 D3D2 D2C2 C2B2 B2A2"/>
    </vehicle>
    <vehicle id="moto102" type="moto_motorcycle" depart="1381.24" departLane="best">
        <route edges="C2C1 C1B1 B1B2 B2C2"/>
    </vehicle>
    <vehicle id="moto103" type="moto_motorcycle" depart="1394.79" departLane="best">
        <route edges="C1B1 B1B0"/>
    </vehicle>
    <vehicle id="moto104" type="moto_motorcycle" depart="1408.33" departLane="best" departSpeed="max">
        <route edges="C0C1 C1C2 C2C3 C3D3 D3E3"/>
    </vehicle>
    <vehicle id="moto105" type="moto_motorcycle" depart="1421.87" departLane="best">
        <route edges="B2C2 C2C3 C3D3 D3D2 D2C2"/>
    </vehicle>
    <vehicle id="moto106" type="moto_motorcycle" depart="1435.41" departLane="best">
        <route edges="C1D1 D1D2 D2C2 C2B2 B2B1 B1C1 C1C2"/>
    </vehicle>
    <vehicle id="moto107" type="moto_motorcycle" depart="1448.95" departLane="best" departSpeed="max">
        <route edges="E2D2 D2D3 D3E3"/>
    </vehicle>
    <vehicle id="moto108" type="moto_motorcycle" depart="1462.49" departLane="best">
        <route edges="C3B3 B3B2 B2B1 B1C1 C1D1 D1D2"/>
    </vehicle>
    <vehicle id="moto109" type="moto_motorcycle" depart="1476.03" departLane="best" departSpeed="max">
        <route edges="B0B1 B1B2 B2B3 B3B4"/>
    </vehicle>
    <vehicle id="moto110" type="moto_motorcycle" depart="1489.58" departLane="best" departSpeed="max">
        <route edges="E3D3 D3C3 C3C2"/>
    </vehicle>
    <vehicle id="moto111" type="moto_motorcycle" depart="1503.12" departLane="best">
        <route edges="C3B3 B3B2 B2B1 B1C1 C1D1 D1E1"/>
    </vehicle>
    <vehicle id="moto112" type="moto_motorcycle" depart="1516.66" departLane="best" departSpeed="max">
        <route edges="A2B2 B2C2 C2C3 C3C4"/>
    </vehicle>
    <vehicle id="moto113" type="moto_motorcycle" depart="1530.20" departLane="best">
        <route edges="C2C3 C3D3 D3D2 D2E2"/>
    </vehicle>
    <vehicle id="moto114" type="moto_motorcycle" depart="1543.74" departLane="best" departSpeed="max">
        <route edges="B0B1 B1B2 B2B3 B3C3 C3D3 D3E3"/>
    </vehicle>
    <vehicle id="moto115" type="moto_motorcycle" depart="1557.28" departLane="best" departSpeed="max">
        <route edges="A2B2 B2B1"/>
    </vehicle>
    <vehicle id="moto116" type="moto_motorcycle" depart="1570.83" departLane="best">
        <route edges="C3D3 D3D2 D2D1 D1D0"/>
    </vehicle>
    <vehicle id="moto117" type="moto_motorcycle" depart="1584.37" departLane="best">
        <route edges="B2B3 B3C3 C3C2 C2B2 B2B1 B1C1"/>
    </vehicle>
    <vehicle id="moto118" type="moto_motorcycle" depart="1597.91" departLane="best" departSpeed="max">
        <route edges="E1D1 D1C1 C1C2 C2C3 C3B3 B3A3"/>
    </vehicle>
    <vehicle id="moto119" type="moto_motorcycle" depart="1611.45" departLane="best">
        <route edges="C3D3 D3D2 D2C2 C2C3 C3C4"/>
    </vehicle>
    <vehicle id="moto120" type="moto_motorcycle" depart="1624.99" departLane="best">
        <route edges="C1C2 C2C3 C3C4"/>
    </vehicle>
    <vehicle id="moto121" type="moto_motorcycle" depart="1638.53" departLane="best">
        <route edges="C2D2 D2D3 D3D4"/>
    </vehicle>
    <vehicle id="moto122" type="moto_motorcycle" depart="1652.08" departLane="best">
        <route edges="B1C1 C1D1 D1D2"/>
    </vehicle>
    <vehicle id="moto123" type="moto_motorcycle" depart="1665.62" departLane="best">
        <route edges="B2B3 B3C3 C3C2 C2C1 C1C0"/>
    </vehicle>
    <vehicle id="moto124" type="moto_motorcycle" depart="1679.16" departLane="best" departSpeed="max">
        <route edges="D0D1 D1C1 C1B1 B1B2 B2B3 B3B4"/>
    </vehicle>
    <vehicle id="moto125" type="moto_motorcycle" depart="1692.70" departLane="best" departSpeed="max">
        <route edges="B4B3 B3B2 B2B1 B1C1 C1D1 D1E1"/>
    </vehicle>
    <vehicle id="moto126" type="moto_motorcycle" depart="1706.24" departLane="best" departSpeed="max">
        <route edges="A2B2 B2C2 C2C1 C1D1"/>
    </vehicle>
    <vehicle id="moto127" type="moto_motorcycle" depart="1719.78" departLane="best" departSpeed="max">
        <route edges="E3D3 D3D2 D2C2 C2C3 C3D3 D3E3"/>
    </vehicle>
    <vehicle id="moto128" type="moto_motorcycle" depart="1733.33" departLane="best" departSpeed="max">
        <route edges="A2B2 B2C2"/>
    </vehicle>
    <vehicle id="moto129" type="moto_motorcycle" depart="1746.87" departLane="best">
        <route edges="B2C2 C2D2 D2D3 D3D4"/>
    </vehicle>
    <vehicle id="moto130" type="moto_motorcycle" depart="1760.41" departLane="best" departSpeed="max">
        <route edges="E1D1 D1D2 D2D3 D3C3"/>
    </vehicle>
    <vehicle id="moto131" type="moto_motorcycle" depart="1773.95" departLane="best" departSpeed="max">
        <route edges="C0C1 C1C2 C2B2 B2A2"/>
    </vehicle>
    <vehicle id="moto132" type="moto_motorcycle" depart="1787.49" departLane="best" departSpeed="max">
        <route edges="D4D3 D3D2 D2D1 D1D0"/>
    </vehicle>
    <vehicle id="moto133" type="moto_motorcycle" depart="1801.03" departLane="best" departSpeed="max">
        <route edges="C4C3 C3D3 D3E3"/>
    </vehicle>
    <vehicle id="moto134" type="moto_motorcycle" depart="1814.57" departLane="best" departSpeed="max">
        <route edges="D0D1 D1C1 C1B1 B1A1"/>
    </vehicle>
    <vehicle id="moto135" type="moto_motorcycle" depart="1828.12" departLane="best">
        <route edges="D3D2 D2C2 C2B2 B2B3 B3B4"/>
    </vehicle>
    <vehicle id="moto136" type="moto_motorcycle" depart="1841.66" departLane="best" departSpeed="max">
        <route edges="D0D1 D1D2 D2D3 D3D4"/>
    </vehicle>
    <vehicle id="moto137" type="moto_motorcycle" depart="1855.20" departLane="best" departSpeed="max">
        <route edges="B0B1 B1C1"/>
    </vehicle>
    <vehicle id="moto138" type="moto_motorcycle" depart="1868.74" departLane="best" departSpeed="max">
        <route edges="A3B3 B3B2 B2C2 C2C3 C3B3"/>
    </vehicle>
    <vehicle id="moto139" type="moto_motorcycle" depart="1882.28" departLane="best">
        <route edges="B3B2 B2C2 C2C3 C3C4"/>
    </vehicle>
    <vehicle id="moto140" type="moto_motorcycle" depart="1895.82" departLane="best">
        <route edges="D1D2 D2C2 C2B2 B2B3"/>
    </vehicle>
    <vehicle id="moto141" type="moto_motorcycle" depart="1909.37" departLane="best" departSpeed="max">
        <route edges="C4C3 C3B3 B3A3"/>
    </vehicle>
    <vehicle id="moto142" type="moto_motorcycle" depart="1922.91" departLane="best">
        <route edges="C2C1 C1B1 B1B2 B2B3 B3C3 C3D3 D3D2"/>
    </vehicle>
    <vehicle id="moto143" type="moto_motorcycle" depart="1936.45" departLane="best" departSpeed="max">
        <route edges="D4D3 D3D2 D2D1 D1C1 C1B1 B1B2"/>
    </vehicle>
    <vehicle id="moto144" type="moto_motorcycle" depart="1949.99" departLane="best">
        <route edges="C1C2 C2C3 C3B3 B3B2"/>
    </vehicle>
    <vehicle id="moto145" type="moto_motorcycle" depart="1963.53" departLane="best" departSpeed="max">
        <route edges="A1B1 B1C1 C1D1 D1D2 D2C2"/>
    </vehicle>
    <vehicle id="moto146" type="moto_motorcycle" depart="1977.07" departLane="best" departSpeed="max">
        <route edges="C4C3 C3B3 B3A3"/>
    </vehicle>
    <vehicle id="moto147" type="moto_motorcycle" depart="1990.62" departLane="best">
        <route edges="D2C2 C2C3 C3B3"/>
    </vehicle>
    <vehicle id="moto148" type="moto_motorcycle" depart="2004.16" departLane="best">
        <route edges="C1C2 C2B2 B2B1 B1A1"/>
    </vehicle>
    <vehicle id="moto149" type="moto_motorcycle" depart="2017.70" departLane="best" departSpeed="max">
        <route edges="A2B2 B2C2 C2D2 D2D3 D3C3"/>
    </vehicle>
    <vehicle id="moto150" type="moto_motorcycle" depart="2031.24" departLane="best" departSpeed="max">
        <route edges="E1D1 D1C1 C1C2 C2C3 C3B3"/>
    </vehicle>
    <vehicle id="moto151" type="moto_motorcycle" depart="2044.78" departLane="best" departSpeed="max">
        <route edges="D4D3 D3C3 C3C2"/>
    </vehicle>
    <vehicle id="moto152" type="moto_motorcycle" depart="2058.32" departLane="best" departSpeed="max">
        <route edges="B0B1 B1B2 B2A2"/>
    </vehicle>
    <vehicle id="moto153" type="moto_motorcycle" depart="2071.87" departLane="best">
        <route edges="B3C3 C3D3 D3D2"/>
    </vehicle>
    <vehicle id="moto154" type="moto_motorcycle" depart="2085.41" departLane="best">
        <route edges="D3C3 C3C2 C2D2 D2E2"/>
    </vehicle>
    <vehicle id="moto155" type="moto_motorcycle" depart="2098.95" departLane="best" departSpeed="max">
        <route edges="E1D1 D1C1 C1B1 B1B2 B2C2"/>
    </vehicle>
    <vehicle id="moto156" type="moto_motorcycle" depart="2112.49" departLane="best">
        <route edges="B2B3 B3C3 C3C2 C2C1 C1B1 B1B2"/>
    </vehicle>
    <vehicle id="moto157" type="moto_motorcycle" depart="2126.03" departLane="best">
        <route edges="D2D3 D3C3"/>
    </vehicle>
    <vehicle id="moto158" type="moto_motorcycle" depart="2139.57" departLane="best">
        <route edges="C1B1 B1B2 B2C2 C2C3 C3C4"/>
    </vehicle>
    <vehicle id="moto159" type="moto_motorcycle" depart="2153.11" departLane="best" departSpeed="max">
        <route edges="B0B1 B1B2 B2C2 C2D2 D2D3 D3D4"/>
    </vehicle>
    <vehicle id="moto160" type="moto_motorcycle" depart="2166.66" departLane="best" departSpeed="max">
        <route edges="D4D3 D3E3"/>
    </vehicle>
    <vehicle id="moto161" type="moto_motorcycle" depart="2180.20" departLane="best">
        <route edges="D3C3"/>
    </vehicle>
    <vehicle id="moto162" type="moto_motorcycle" depart="2193.74" departLane="best" departSpeed="max">
        <route edges="A1B1 B1C1 C1D1 D1E1"/>
    </vehicle>
    <vehicle id="moto163" type="moto_motorcycle" depart="2207.28" departLane="best" departSpeed="max">
        <route edges="B4B3 B3C3 C3D3 D3D4"/>
    </vehicle>
    <vehicle id="moto164" type="moto_motorcycle" depart="2220.82" departLane="best">
        <route edges="D3C3 C3C2 C2D2 D2E2"/>
    </vehicle>
    <vehicle id="moto165" type="moto_motorcycle" depart="2234.36" departLane="best">
        <route edges="D3C3 C3B3 B3A3"/>
    </vehicle>
    <vehicle id="moto166" type="moto_motorcycle" depart="2247.91" departLane="best">
        <route edges="D2D3 D3C3 C3B3 B3B2 B2B1 B1C1"/>
    </vehicle>
    <vehicle id="moto167" type="moto_motorcycle" depart="2261.45" departLane="best" departSpeed="max">
        <route edges="D4D3 D3D2 D2E2"/>
    </vehicle>
    <vehicle id="moto168" type="moto_motorcycle" depart="2274.99" departLane="best">
        <route edges="B2B1 B1C1 C1D1 D1D2 D2D3"/>
    </vehicle>
    <vehicle id="moto169" type="moto_motorcycle" depart="2288.53" departLane="best">
        <route edges="C2B2 B2B3 B3B4"/>
    </vehicle>
    <vehicle id="moto170" type="moto_motorcycle" depart="2302.07" departLane="best">
        <route edges="D3C3 C3B3 B3B2 B2C2"/>
    </vehicle>
    <vehicle id="moto171" type="moto_motorcycle" depart="2315.61" departLane="best" departSpeed="max">
        <route edges="A1B1 B1B2 B2B3"/>
    </vehicle>
    <vehicle id="moto172" type="moto_motorcycle" depart="2329.16" departLane="best" departSpeed="max">
        <route edges="B4B3 B3B2 B2C2 C2D2 D2E2"/>
    </vehicle>
    <vehicle id="moto173" type="moto_motorcycle" depart="2342.70" departLane="best" departSpeed="max">
        <route edges="E3D3 D3C3 C3B3 B3B2"/>
    </vehicle>
    <vehicle id="moto174" type="moto_motorcycle" depart="2356.24" departLane="best" departSpeed="max">
        <route edges="C4C3 C3C2 C2C1 C1C0"/>
    </vehicle>
    <vehicle id="moto175" type="moto_motorcycle" depart="2369.78" departLane="best" departSpeed="max">
        <route edges="E3D3 D3C3 C3C2 C2D2"/>
    </vehicle>
    <vehicle id="moto176" type="moto_motorcycle" depart="2383.32" departLane="best" departSpeed="max">
        <route edges="E2D2 D2C2 C2B2 B2B1 B1C1"/>
    </vehicle>
    <vehicle id="moto177" type="moto_motorcycle" depart="2396.86" departLane="best" departSpeed="max">
        <route edges="E3D3 D3C3 C3B3 B3B2 B2B1"/>
    </vehicle>
    <vehicle id="moto178" type="moto_motorcycle" depart="2410.41" departLane="best" departSpeed="max">
        <route edges="E3D3 D3C3 C3B3 B3A3"/>
    </vehicle>
    <vehicle id="moto179" type="moto_motorcycle" depart="2423.95" departLane="best" departSpeed="max">
        <route edges="A3B3 B3B2 B2B1 B1C1 C1C2"/>
    </vehicle>
    <vehicle id="moto180" type="moto_motorcycle" depart="2437.49" departLane="best">
        <route edges="D1D2 D2C2 C2B2 B2B3 B3B4"/>
    </vehicle>
    <vehicle id="moto181" type="moto_motorcycle" depart="2451.03" departLane="best" departSpeed="max">
        <route edges="C4C3 C3D3 D3D2 D2C2 C2C3"/>
    </vehicle>
    <vehicle id="moto182" type="moto_motorcycle" depart="2464.57" departLane="best" departSpeed="max">
        <route edges="C0C1 C1B1 B1B2 B2B3 B3C3 C3C2"/>
    </vehicle>
    <vehicle id="moto183" type="moto_motorcycle" depart="2478.11" departLane="best">
        <route edges="B2C2 C2C1 C1D1 D1D2"/>
    </vehicle>
    <vehicle id="moto184" type="moto_motorcycle" depart="2491.65" departLane="best" departSpeed="max">
        <route edges="A1B1 B1C1 C1D1 D1D2 D2D3 D3D4"/>
    </vehicle>
    <vehicle id="moto185" type="moto_motorcycle" depart="2505.20" departLane="best">
        <route edges="C2D2 D2D3 D3C3 C3C2 C2C1 C1D1 D1D2"/>
    </vehicle>
    <vehicle id="moto186" type="moto_motorcycle" depart="2518.74" departLane="best">
        <route edges="D2C2 C2C1 C1D1 D1D0"/>
    </vehicle>
    <vehicle id="moto187" type="moto_motorcycle" depart="2532.28" departLane="best" departSpeed="max">
        <route edges="C0C1 C1B1 B1B0"/>