<?xml version="1.0" encoding="UTF-8"?>

<!-- generated on 05/31/20 02:17:10 by Eclipse SUMO duarouter Version 1.6.0
<configuration xmlns:xsi="http://www.w3.org/2001/XMLSchema-instance" xsi:noNamespaceSchemaLocation="http://sumo.dlr.de/xsd/duarouterConfiguration.xsd">

    <input>
        <net-file value="optimal.net.xml"/>
        <route-files value="optimal.motorcycle.trips.xml"/>
    </input>

    <output>
        <output-file value="optimal.motorcycle.rou.xml"/>
        <alternatives-output value="optimal.motorcycle.rou.alt.xml"/>
    </output>

    <time>
        <begin value="0"/>
        <end value="1800.0"/>
    </time>

    <report>
        <no-warnings value="true"/>
        <ignore-errors value="true"/>
        <no-step-log value="true"/>
    </report>

</configuration>
-->

<routes xmlns:xsi="http://www.w3.org/2001/XMLSchema-instance" xsi:noNamespaceSchemaLocation="http://sumo.dlr.de/xsd/routes_file.xsd">
    <vType id="moto_motorcycle" vClass="motorcycle"/>
    <vehicle id="moto0" type="moto_motorcycle" depart="0.00" departLane="best" departSpeed="max">
        <route edges="C4C3 C3C2 C2C1 C1B1 B1A1"/>
    </vehicle>
    <vehicle id="moto1" type="moto_motorcycle" depart="16.00" departLane="best">
        <route edges="B3B2 B2C2"/>
    </vehicle>
    <vehicle id="moto2" type="moto_motorcycle" depart="32.00" departLane="best">
        <route edges="D2C2 C2C1 C1D1 D1D0"/>
    </vehicle>
    <vehicle id="moto3" type="moto_motorcycle" depart="48.00" departLane="best" departSpeed="max">
        <route edges="E1D1 D1C1 C1B1 B1B2"/>
    </vehicle>
    <vehicle id="moto4" type="moto_motorcycle" depart="64.00" departLane="best">
        <route edges="C1C2 C2B2 B2B1 B1A1"/>
    </vehicle>
    <vehicle id="moto5" type="moto_motorcycle" depart="80.00" departLane="best">
        <route edges="B2B1 B1C1 C1C2 C2C3"/>
    </vehicle>
    <vehicle id="moto6" type="moto_motorcycle" depart="96.00" departLane="best" departSpeed="max">
        <route edges="A1B1 B1B2 B2B3"/>
    </vehicle>
    <vehicle id="moto7" type="moto_motorcycle" depart="112.00" departLane="best" departSpeed="max">
        <route edges="D0D1 D1D2 D2D3 D3C3 C3B3"/>
    </vehicle>
    <vehicle id="moto8" type="moto_motorcycle" depart="128.00" departLane="best">
        <route edges="B2B1 B1C1 C1C2 C2C3 C3C4"/>
    </vehicle>
    <vehicle id="moto9" type="moto_motorcycle" depart="144.00" departLane="best">
        <route edges="D3C3 C3C2 C2C1 C1B1 B1A1"/>
    </vehicle>
    <vehicle id="moto10" type="moto_motorcycle" depart="160.00" departLane="best">
        <route edges="D3C3 C3C2 C2D2 D2D1 D1D0"/>
    </vehicle>
    <vehicle id="moto11" type="moto_motorcycle" depart="176.00" departLane="best" departSpeed="max">
        <route edges="B4B3 B3B2 B2A2"/>
    </vehicle>
    <vehicle id="moto12" type="moto_motorcycle" depart="192.00" departLane="best" departSpeed="max">
        <route edges="E2D2 D2C2 C2B2 B2B3 B3C3"/>
    </vehicle>
    <vehicle id="moto13" type="moto_motorcycle" depart="208.00" departLane="best" departSpeed="max">
        <route edges="A3B3 B3C3 C3C2 C2C1 C1B1 B1B2"/>
    </vehicle>
    <vehicle id="moto14" type="moto_motorcycle" depart="224.00" departLane="best" departSpeed="max">
        <route edges="D4D3 D3C3 C3C4"/>
    </vehicle>
    <vehicle id="moto15" type="moto_motorcycle" depart="240.00" departLane="best">
        <route edges="D3C3 C3C2 C2C1 C1D1 D1E1"/>
    </vehicle>
    <vehicle id="moto16" type="moto_motorcycle" depart="256.00" departLane="best">
        <route edges="C2D2 D2D3 D3E3"/>
    </vehicle>
    <vehicle id="moto17" type="moto_motorcycle" depart="272.00" departLane="best" departSpeed="max">
        <route edges="C0C1 C1C2 C2C3 C3B3"/>
    </vehicle>
    <vehicle id="moto18" type="moto_motorcycle" depart="288.00" departLane="best">
        <route edges="D3D2 D2C2 C2C3 C3C4"/>
    </vehicle>
    <vehicle id="moto19" type="moto_motorcycle" depart="304.00" departLane="best" departSpeed="max">
        <route edges="D4D3 D3C3 C3C2"/>
    </vehicle>
    <vehicle id="moto20" type="moto_motorcycle" depart="320.00" departLane="best">
        <route edges="D1C1 C1B1 B1B0"/>
    </vehicle>
    <vehicle id="moto21" type="moto_motorcycle" depart="336.00" departLane="best">
        <route edges="B2B1 B1C1 C1C2 C2C3 C3B3 B3B2"/>
    </vehicle>
    <vehicle id="moto22" type="moto_motorcycle" depart="352.00" departLane="best" departSpeed="max">
        <route edges="A2B2 B2B3 B3A3"/>
    </vehicle>
    <vehicle id="moto23" type="moto_motorcycle" depart="368.00" departLane="best" departSpeed="max">
        <route edges="A3B3 B3B2"/>
    </vehicle>
    <vehicle id="moto24" type="moto_motorcycle" depart="384.00" departLane="best" departSpeed="max">
        <route edges="C4C3 C3C2 C2C1 C1B1"/>
    </vehicle>
    <vehicle id="moto25" type="moto_motorcycle" depart="400.00" departLane="best" departSpeed="max">
        <route edges="C0C1 C1B1 B1B2 B2C2"/>
    </vehicle>
    <vehicle id="moto26" type="moto_motorcycle" depart="416.00" departLane="best">
        <route edges="B2C2 C2D2 D2D3 D3D4"/>
    </vehicle>
    <vehicle id="moto27" type="moto_motorcycle" depart="432.00" departLane="best" departSpeed="max">
        <route edges="D0D1 D1C1 C1C2 C2C3 C3C4"/>
    </vehicle>
    <vehicle id="moto28" type="moto_motorcycle" depart="448.00" departLane="best">
        <route edges="B1B2 B2C2 C2C1 C1D1 D1D2"/>
    </vehicle>
    <vehicle id="moto29" type="moto_motorcycle" depart="464.00" departLane="best" departSpeed="max">
        <route edges="B0B1 B1C1 C1C0"/>
    </vehicle>
    <vehicle id="moto30" type="moto_motorcycle" depart="480.00" departLane="best" departSpeed="max">
        <route edges="E3D3 D3D2 D2C2 C2C3 C3D3"/>
    </vehicle>
    <vehicle id="moto31" type="moto_motorcycle" depart="496.00" departLane="best">
        <route edges="C3B3 B3B2 B2C2 C2D2 D2D1 D1D0"/>
    </vehicle>
    <vehicle id="moto32" type="moto_motorcycle" depart="512.00" departLane="best" departSpeed="max">
        <route edges="D4D3 D3D2 D2C2"/>
    </vehicle>
    <vehicle id="moto33" type="moto_motorcycle" depart="528.00" departLane="best">
        <route edges="B2B1 B1A1"/>
    </vehicle>
    <vehicle id="moto34" type="moto_motorcycle" depart="544.00" departLane="best" departSpeed="max">
        <route edges="B4B3 B3A3"/>
    </vehicle>
    <vehicle id="moto35" type="moto_motorcycle" depart="560.00" departLane="best">
        <route edges="B2B1 B1C1 C1D1 D1D2 D2D3 D3D4"/>
    </vehicle>
    <vehicle id="moto36" type="moto_motorcycle" depart="576.00" departLane="best" departSpeed="max">
        <route edges="E1D1 D1C1 C1B1 B1B2 B2B3 B3B4"/>
    </vehicle>
    <vehicle id="moto37" type="moto_motorcycle" depart="592.00" departLane="best" departSpeed="max">
        <route edges="D0D1 D1C1 C1C0"/>
    </vehicle>
    <vehicle id="moto38" type="moto_motorcycle" depart="608.00" departLane="best" departSpeed="max">
        <route edges="E1D1 D1C1 C1C2 C2B2"/>
    </vehicle>
    <vehicle id="moto39" type="moto_motorcycle" depart="624.00" departLane="best">
        <route edges="B2C2 C2C3 C3B3 B3A3"/>
    </vehicle>
    <vehicle id="moto40" type="moto_motorcycle" depart="640.00" departLane="best">
        <route edges="C3B3 B3A3"/>
    </vehicle>
    <vehicle id="moto41" type="moto_motorcycle" depart="656.00" departLane="best">
        <route edges="C3D3 D3D2"/>
    </vehicle>
    <vehicle id="moto42" type="moto_motorcycle" depart="672.00" departLane="best">
        <route edges="C1B1 B1B2 B2C2"/>
    </vehicle>
    <vehicle id="moto43" type="moto_motorcycle" depart="688.00" departLane="best" departSpeed="max">
        <route edges="E3D3 D3D2 D2C2 C2C3"/>
    </vehicle>
    <vehicle id="moto44" type="moto_motorcycle" depart="704.00" departLane="best" departSpeed="max">
        <route edges="A3B3 B3B2 B2B1 B1B0"/>
    </vehicle>
    <vehicle id="moto45" type="moto_motorcycle" depart="720.00" departLane="best" departSpeed="max">
        <route edges="A3B3 B3C3 C3D3"/>
    </vehicle>
    <vehicle id="moto46" type="moto_motorcycle" depart="736.00" departLane="best">
        <route edges="D3C3 C3C2 C2D2 D2D1 D1C1 C1C2"/>
    </vehicle>
    <vehicle id="moto47" type="moto_motorcycle" depart="752.00" departLane="best" departSpeed="max">
        <route edges="A2B2 B2C2 C2C1 C1C0"/>
    </vehicle>
    <vehicle id="moto48" type="moto_motorcycle" depart="768.00" departLane="best" departSpeed="max">
        <route edges="E3D3 D3C3 C3C2 C2D2"/>
    </vehicle>
    <vehicle id="moto49" type="moto_motorcycle" depart="784.00" departLane="best" departSpeed="max">
        <route edges="E3D3 D3D2 D2E2"/>
    </vehicle>
    <vehicle id="moto50" type="moto_motorcycle" depart="800.00" departLane="best" departSpeed="max">
        <route edges="A1B1 B1C1 C1D1 D1D2"/>
    </vehicle>
    <vehicle id="moto51" type="moto_motorcycle" depart="816.00" departLane="best" departSpeed="max">
        <route edges="D0D1 D1C1 C1C2 C2D2"/>
    </vehicle>
    <vehicle id="moto52" type="moto_motorcycle" depart="832.00" departLane="best">
        <route edges="B2C2 C2C3 C3D3"/>
    </vehicle>
    <vehicle id="moto53" type="moto_motorcycle" depart="848.00" departLane="best" departSpeed="max">
        <route edges="A3B3 B3B2 B2B1 B1C1 C1C2"/>
    </vehicle>
    <vehicle id="moto54" type="moto_motorcycle" depart="864.00" departLane="best">
        <route edges="C1D1 D1D2 D2D3 D3D4"/>
    </vehicle>
    <vehicle id="moto55" type="moto_motorcycle" depart="880.00" departLane="best" departSpeed="max">
        <route edges="E1D1 D1C1 C1C2 C2C3 C3B3 B3A3"/>
    </vehicle>
    <vehicle id="moto56" type="moto_motorcycle" depart="896.00" departLane="best">
        <route edges="C2C3 C3B3 B3B2 B2B1"/>
    </vehicle>
    <vehicle id="moto57" type="moto_motorcycle" depart="912.00" departLane="best" departSpeed="max">
        <route edges="E1D1 D1D2 D2E2"/>
    </vehicle>
    <vehicle id="moto58" type="moto_motorcycle" depart="928.00" departLane="best">
        <route edges="B3C3 C3D3"/>
    </vehicle>
    <vehicle id="moto59" type="moto_motorcycle" depart="944.00" departLane="best" departSpeed="max">
        <route edges="C4C3 C3C2 C2B2 B2A2"/>
    </vehicle>
    <vehicle id="moto60" type="moto_motorcycle" depart="960.00" departLane="best">
        <route edges="D2D1 D1C1 C1C2 C2D2"/>
    </vehicle>
    <vehicle id="moto61" type="moto_motorcycle" depart="976.00" departLane="best">
        <route edges="D2D3 D3C3 C3C2 C2D2"/>
    </vehicle>
    <vehicle id="moto62" type="moto_motorcycle" depart="992.00" departLane="best" departSpeed="max">
        <route edges="A1B1 B1B2 B2B3 B3B4"/>
    </vehicle>
    <vehicle id="moto63" type="moto_motorcycle" depart="1008.00" departLane="best" departSpeed="max">
        <route edges="A1B1 B1C1 C1D1 D1D2 D2D3 D3D4"/>
    </vehicle>
    <vehicle id="moto64" type="moto_motorcycle" depart="1024.00" departLane="best" departSpeed="max">
        <route edges="E1D1 D1D2 D2D3"/>
    </vehicle>
    <vehicle id="moto65" type="moto_motorcycle" depart="1040.00" departLane="best">
        <route edges="B3C3 C3C2 C2B2 B2B1 B1B0"/>
    </vehicle>
    <vehicle id="moto66" type="moto_motorcycle" depart="1056.00" departLane="best" departSpeed="max">
        <route edges="E1D1 D1D2 D2D3 D3D4"/>
    </vehicle>
    <vehicle id="moto67" type="moto_motorcycle" depart="1072.00" departLane="best" departSpeed="max">
        <route edges="A3B3 B3C3 C3C2 C2C1"/>
    </vehicle>
    <vehicle id="moto68" type="moto_motorcycle" depart="1088.00" departLane="best" departSpeed="max">
        <route edges="A2B2 B2C2 C2C1 C1D1 D1E1"/>
    </vehicle>
    <vehicle id="moto69" type="moto_motorcycle" depart="1104.00" departLane="best">
        <route edges="D2D1 D1C1 C1C2 C2B2 B2A2"/>
    </vehicle>
    <vehicle id="moto70" type="moto_motorcycle" depart="1120.00" departLane="best">
        <route edges="C2B2 B2B1 B1C1 C1C2 C2C3 C3B3"/>
    </vehicle>
    <vehicle id="moto71" type="moto_motorcycle" depart="1136.00" departLane="best">
        <route edges="B2C2 C2D2 D2E2"/>
    </vehicle>
    <vehicle id="moto72" type="moto_motorcycle" depart="1152.00" departLane="best">
        <route edges="C1C2 C2C3 C3B3 B3B2 B2C2"/>
    </vehicle>
    <vehicle id="moto73" type="moto_motorcycle" depart="1168.00" departLane="best">
        <route edges="C2D2 D2D1 D1E1"/>
    </vehicle>
    <vehicle id="moto74" type="moto_motorcycle" depart="1184.00" departLane="best">
        <route edges="B1C1 C1C2 C2B2 B2B3 B3B4"/>
    </vehicle>
    <vehicle id="moto75" type="moto_motorcycle" depart="1200.00" departLane="best" departSpeed="max">
        <route edges="E3D3 D3D2 D2D1 D1C1"/>
    </vehicle>
    <vehicle id="moto76" type="moto_motorcycle" depart="1216.00" departLane="best">
        <route edges="C1D1 D1D2 D2C2 C2C3"/>
    </vehicle>
    <vehicle id="moto77" type="moto_motorcycle" depart="1232.00" departLane="best" departSpeed="max">
        <route edges="A3B3 B3B2 B2C2"/>
    </vehicle>
    <vehicle id="moto78" type="moto_motorcycle" depart="1248.00" departLane="best" departSpeed="max">
        <route edges="B4B3 B3C3 C3C4"/>
    </vehicle>
    <vehicle id="moto79" type="moto_motorcycle" depart="1264.00" departLane="best">
        <route edges="B2B3 B3C3 C3C2 C2C1 C1B1 B1B2 B2C2"/>
    </vehicle>
    <vehicle id="moto80" type="moto_motorcycle" depart="1280.00" departLane="best" departSpeed="max">
        <route edges="A2B2 B2B3 B3C3 C3D3"/>
    </vehicle>
    <vehicle id="moto81" type="moto_motorcycle" depart="1296.00" departLane="best">
        <route edges="B2B1 B1C1 C1C2 C2C3 C3D3 D3D2"/>
    </vehicle>
    <vehicle id="moto82" type="moto_motorcycle" depart="1312.00" departLane="best" departSpeed="max">
        <route edges="D4D3 D3D2 D2C2 C2B2 B2B1 B1B0"/>
    </vehicle>
    <vehicle id="moto83" type="moto_motorcycle" depart="1328.00" departLane="best">
        <route edges="B2B3 B3C3 C3D3 D3D2 D2D1 D1D0"/>
    </vehicle>
    <vehicle id="moto84" type="moto_motorcycle" depart="1344.00" departLane="best">
        <route edges="B2B1 B1C1 C1C2 C2B2 B2A2"/>
    </vehicle>
    <vehicle id="moto85" type="moto_motorcycle" depart="1360.00" departLane="best" departSpeed="max">
        <route edges="E2D2 D2D3 D3C3 C3C2"/>
    </vehicle>
    <vehicle id="moto86" type="moto_motorcycle" depart="1376.00" departLane="best">
        <route edges="C2B2 B2B3 B3C3 C3D3 D3D2 D2C2"/>
    </vehicle>
    <vehicle id="moto87" type="moto_motorcycle" depart="1392.00" departLane="best">
        <route edges="D3C3 C3C2 C2B2 B2B3"/>
    </vehicle>
    <vehicle id="moto88" type="moto_motorcycle" depart="1408.00" departLane="best" departSpeed="max">
        <route edges="A3B3 B3B2 B2B1 B1C1 C1C2"/>
    </vehicle>
    <vehicle id="moto89" type="moto_motorcycle" depart="1424.00" departLane="best">
        <route edges="C1C2 C2B2"/>
    </vehicle>
    <vehicle id="moto90" type="moto_motorcycle" depart="1440.00" departLane="best">
        <route edges="D1D2 D2C2 C2C1 C1D1 D1D0"/>
    </vehicle>
    <vehicle id="moto91" type="moto_motorcycle" depart="1456.00" departLane="best" departSpeed="max">
        <route edges="E3D3 D3D2 D2D1 D1C1 C1B1 B1B2"/>
    </vehicle>
    <vehicle id="moto92" type="moto_motorcycle" depart="1472.00" departLane="best">
        <route edges="C1B1 B1B2 B2B3 B3C3"/>
    </vehicle>
    <vehicle id="moto93" type="moto_motorcycle" depart="1488.00" departLane="best" departSpeed="max">
        <route edges="D4D3 D3C3 C3B3 B3A3"/>
    </vehicle>
    <vehicle id="moto94" type="moto_motorcycle" depart="1504.00" departLane="best">
        <route edges="B1C1 C1D1"/>
    </vehicle>
    <vehicle id="moto95" type="moto_motorcycle" depart="1520.00" departLane="best">
        <route edges="C1C2 C2C3 C3B3 B3B2"/>
    </vehicle>
    <vehicle id="moto96" type="moto_motorcycle" depart="1536.00" departLane="best">
        <route edges="B2B3 B3C3 C3D3 D3D4"/>
    </vehicle>
    <vehicle id="moto97" type="moto_motorcycle" depart="1552.00" departLane="best">
        <route edges="C1D1 D1D2 D2E2"/>
    </vehicle>
    <vehicle id="moto98" type="moto_motorcycle" depart="1568.00" departLane="best">
        <route edges="C3B3 B3B2 B2B1 B1B0"/>
    </vehicle>
    <vehicle id="moto99" type="moto_motorcycle" depart="1584.00" departLane="best" departSpeed="max">
        <route edges="E3D3 D3D2 D2E2"/>
    </vehicle>
    <vehicle id="moto100" type="moto_motorcycle" depart="1600.00" departLane="best" departSpeed="max">
        <route edges="E3D3 D3D4"/>
    </vehicle>
    <vehicle id="moto101" type="moto_motorcycle" depart="1616.00" departLane="best" departSpeed="max">
        <route edges="D4D3 D3D2 D2C2 C2B2 B2A2"/>
    </vehicle>
    <vehicle id="moto102" type="moto_motorcycle" depart="1632.00" departLane="best">
        <route edges="C2C1 C1B1 B1B2 B2C2"/>
    </vehicle>
    <vehicle id="moto103" type="moto_motorcycle" depart="1648.00" departLane="best">
        <route edges="C1B1 B1B0"/>
    </vehicle>
    <vehicle id="moto104" type="moto_motorcycle" depart="1664.00" departLane="best" departSpeed="max">
        <route edges="C0C1 C1C2 C2C3 C3D3 D3E3"/>
    </vehicle>
    <vehicle id="moto105" type="moto_motorcycle" depart="1680.00" departLane="best">
        <route edges="B2C2 C2C3 C3D3 D3D2 D2C2"/>
    </vehicle>
    <vehicle id="moto106" type="moto_motorcycle" depart="1696.00" departLane="best">
        <route edges="C1D1 D1D2 D2C2 C2B2 B2B1 B1C1 C1C2"/>
    </vehicle>
    <vehicle id="moto107" type="moto_motorcycle" depart="1712.00" departLane="best" departSpeed="max">
        <route edges="E2D2 D2D3 D3E3"/>
    </vehicle>
    <vehicle id="moto108" type="moto_motorcycle" depart="1728.00" departLane="best">
        <route edges="C3B3 B3B2 B2B1 B1C1 C1D1 D1D2"/>
    </vehicle>
    <vehicle id="moto109" type="moto_motorcycle" depart="1744.00" departLane="best" departSpeed="max">
        <route edges="B0B1 B1B2 B2B3 B3B4"/>
    </vehicle>
    <vehicle id="moto110" type="moto_motorcycle" depart="1760.00" departLane="best" departSpeed="max">
        <route edges="E3D3 D3C3 C3C2"/>
    </vehicle>
    <vehicle id="moto111" type="moto_motorcycle" depart="1776.00" departLane="best">
        <route edges="C3B3 B3B2 B2B1 B1C1 C1D1 D1E1"/>
    </vehicle>
    <vehicle id="moto112" type="moto_motorcycle" depart="1792.00" departLane="best" departSpeed="max">
        <route edges="A2B2 B2C2 C2C3 C3C4"/>
    </vehicle>
</routes>
