<additional>
    <tlLogic id="intersection/0002/tls" programID="0" offset="-17.87"/>
    <tlLogic id="intersection/0003/tls" programID="0" offset="0.00"/>
    <tlLogic id="intersection/0004/tls" programID="0" offset="7.13"/>
    <tlLogic id="intersection/0005/tls" programID="0" offset="-25.00"/>
    <tlLogic id="intersection/0006/tls" programID="0" offset="-7.13"/>
    <tlLogic id="intersection/0007/tls" programID="0" offset="-50.00"/>
    <tlLogic id="intersection/0008/tls" programID="0" offset="-28.62"/>
    <tlLogic id="intersection/0009/tls" programID="0" offset="-35.75"/>
    <tlLogic id="intersection/0010/tls" programID="0" offset="-42.87"/>
</additional>
