<?xml version="1.0" encoding="UTF-8"?>

<!-- generated on Mon Oct 14 17:33:03 2019 by Eclipse SUMO duarouter Version 1.2.0
<configuration xmlns:xsi="http://www.w3.org/2001/XMLSchema-instance" xsi:noNamespaceSchemaLocation="http://sumo.dlr.de/xsd/duarouterConfiguration.xsd">

    <input>
        <net-file value="osm.net.xml"/>
        <route-files value="osm.bicycle.trips.xml"/>
    </input>

    <output>
        <output-file value="osm.bicycle.trips.xml.tmp"/>
        <write-trips value="true"/>
    </output>

    <time>
        <begin value="0"/>
        <end value="3600.0"/>
    </time>

    <report>
        <no-warnings value="true"/>
        <ignore-errors value="true"/>
        <no-step-log value="true"/>
    </report>

</configuration>
-->

<routes xmlns:xsi="http://www.w3.org/2001/XMLSchema-instance" xsi:noNamespaceSchemaLocation="http://sumo.dlr.de/xsd/routes_file.xsd">
    <vType id="bike_bicycle" vClass="bicycle"/>
    <trip id="bike1" type="bike_bicycle" depart="9.58" departLane="best" from="-593766964" to="-578942372#1"/>
    <trip id="bike2" type="bike_bicycle" depart="19.15" departLane="best" from="578942361#2" to="578942354#0"/>
    <trip id="bike3" type="bike_bicycle" depart="28.73" departLane="best" from="6024091#2" to="-578934698"/>
    <trip id="bike4" type="bike_bicycle" depart="38.30" departLane="best" from="436291010" to="-419814433#0"/>
    <trip id="bike5" type="bike_bicycle" depart="47.88" departLane="best" from="-578942367#1" to="578605861#1"/>
    <trip id="bike7" type="bike_bicycle" depart="67.03" departLane="best" from="578934717#0" to="578934691#1"/>
    <trip id="bike8" type="bike_bicycle" depart="76.60" departLane="best" from="-578942367#2" to="578934712"/>
    <trip id="bike9" type="bike_bicycle" depart="86.18" departLane="best" from="578942372#2" to="-184711452"/>
    <trip id="bike10" type="bike_bicycle" depart="95.75" departLane="best" from="578942372#1" to="578942357"/>
    <trip id="bike11" type="bike_bicycle" depart="105.33" departLane="best" departSpeed="max" from="184711452" to="-578934718#3"/>
    <trip id="bike12" type="bike_bicycle" depart="114.91" departLane="best" departSpeed="max" from="642337374#0" to="36054466#2"/>
    <trip id="bike13" type="bike_bicycle" depart="124.48" departLane="best" departSpeed="max" from="-578934709#1" to="-578934700#1"/>
    <trip id="bike14" type="bike_bicycle" depart="134.06" departLane="best" from="5955850#0" to="578934717#0"/>
    <trip id="bike15" type="bike_bicycle" depart="143.63" departLane="best" from="578942372#2" to="578942362"/>
    <trip id="bike17" type="bike_bicycle" depart="162.78" departLane="best" from="36054466#5" to="578934699"/>
    <trip id="bike18" type="bike_bicycle" depart="172.36" departLane="best" from="593766961" to="578934718#0"/>
    <trip id="bike19" type="bike_bicycle" depart="181.93" departLane="best" from="5962129#1" to="578934702"/>
    <trip id="bike20" type="bike_bicycle" depart="191.51" departLane="best" from="578942354#1" to="-419814433#4"/>
    <trip id="bike21" type="bike_bicycle" depart="201.08" departLane="best" from="-578942370" to="-641705065"/>
    <trip id="bike22" type="bike_bicycle" depart="210.66" departLane="best" departSpeed="max" from="-578934699" to="-578942375"/>
    <trip id="bike23" type="bike_bicycle" depart="220.24" departLane="best" from="-578934712" to="-5962129#3"/>
    <trip id="bike24" type="bike_bicycle" depart="229.81" departLane="best" departSpeed="max" from="578934715" to="36054466#8"/>
    <trip id="bike25" type="bike_bicycle" depart="239.39" departLane="best" from="36054466#3" to="-578942371#1"/>
    <trip id="bike26" type="bike_bicycle" depart="248.96" departLane="best" departSpeed="max" from="-593766962#1" to="641705065"/>
    <trip id="bike27" type="bike_bicycle" depart="258.54" departLane="best" from="578934717#0" to="578934717#1"/>
    <trip id="bike28" type="bike_bicycle" depart="268.11" departLane="best" departSpeed="max" from="-578942344" to="578942362"/>
    <trip id="bike29" type="bike_bicycle" depart="277.69" departLane="best" departSpeed="max" from="-578942334" to="419814433#4"/>
    <trip id="bike30" type="bike_bicycle" depart="287.26" departLane="best" departSpeed="max" from="89927838#0" to="578934722"/>
    <trip id="bike32" type="bike_bicycle" depart="306.41" departLane="best" from="593766965" to="578942369#1"/>
    <trip id="bike33" type="bike_bicycle" depart="315.99" departLane="best" from="-578942371#0" to="-419814433#0"/>
    <trip id="bike34" type="bike_bicycle" depart="325.57" departLane="best" from="-5962129#4" to="-5962129#1"/>
    <trip id="bike35" type="bike_bicycle" depart="335.14" departLane="best" from="-578942365" to="641705146#0"/>
    <trip id="bike36" type="bike_bicycle" depart="344.72" departLane="best" from="5962129#5" to="278328405#1"/>
    <trip id="bike38" type="bike_bicycle" depart="363.87" departLane="best" from="641705063#1" to="436291020#0"/>
    <trip id="bike39" type="bike_bicycle" depart="373.44" departLane="best" departSpeed="max" from="-593766962#1" to="-593766964"/>
    <trip id="bike41" type="bike_bicycle" depart="392.59" departLane="best" from="578934700#1" to="6024091#5"/>
    <trip id="bike42" type="bike_bicycle" depart="402.17" departLane="best" departSpeed="max" from="419814433#0" to="-578942372#0"/>
    <trip id="bike43" type="bike_bicycle" depart="411.74" departLane="best" from="89927838#3" to="578605861#2"/>
    <trip id="bike44" type="bike_bicycle" depart="421.32" departLane="best" departSpeed="max" from="-578934709#1" to="-419814433#4"/>
    <trip id="bike45" type="bike_bicycle" depart="430.90" departLane="best" departSpeed="max" from="-578934717#1" to="578934718#2"/>
    <trip id="bike46" type="bike_bicycle" depart="440.47" departLane="best" from="578942371#1" to="436291016#3"/>
    <trip id="bike48" type="bike_bicycle" depart="459.62" departLane="best" from="89927838#3" to="578934690"/>
    <trip id="bike49" type="bike_bicycle" depart="469.20" departLane="best" from="642751754#0" to="5955850#2"/>
    <trip id="bike50" type="bike_bicycle" depart="478.77" departLane="best" from="-419814433#1" to="578942361#1"/>
    <trip id="bike51" type="bike_bicycle" depart="488.35" departLane="best" from="578934724#0" to="578934691#0"/>
    <trip id="bike52" type="bike_bicycle" depart="497.92" departLane="best" departSpeed="max" from="-593766962#1" to="578934722"/>
    <trip id="bike53" type="bike_bicycle" depart="507.50" departLane="best" departSpeed="max" from="-578934717#1" to="436291016#6"/>
    <trip id="bike55" type="bike_bicycle" depart="526.65" departLane="best" from="5962129#5" to="-5962129#0"/>
    <trip id="bike56" type="bike_bicycle" depart="536.23" departLane="best" departSpeed="max" from="436291021#0" to="-578942358"/>
    <trip id="bike57" type="bike_bicycle" depart="545.80" departLane="best" from="641705063#0" to="5962129#1"/>
    <trip id="bike58" type="bike_bicycle" depart="555.38" departLane="best" from="-5962129#0" to="578934722"/>
    <trip id="bike59" type="bike_bicycle" depart="564.95" departLane="best" departSpeed="max" from="578934711" to="-578934718#2"/>
    <trip id="bike60" type="bike_bicycle" depart="574.53" departLane="best" from="578942367#2" to="578934691#1"/>
    <trip id="bike61" type="bike_bicycle" depart="584.10" departLane="best" from="578942369#1" to="578934690"/>
    <trip id="bike62" type="bike_bicycle" depart="593.68" departLane="best" from="-184711458" to="36054466#1"/>
    <trip id="bike63" type="bike_bicycle" depart="603.25" departLane="best" from="-419814433#4" to="641705064#0"/>
    <trip id="bike64" type="bike_bicycle" depart="612.83" departLane="best" from="5962129#5" to="593766962#0"/>
    <trip id="bike65" type="bike_bicycle" depart="622.40" departLane="best" from="-5962129#2" to="-578605861#2"/>
    <trip id="bike66" type="bike_bicycle" depart="631.98" departLane="best" from="5962129#5" to="641705146#1"/>
    <trip id="bike67" type="bike_bicycle" depart="641.56" departLane="best" from="-578934700#0" to="436291062"/>
    <trip id="bike69" type="bike_bicycle" depart="660.71" departLane="best" from="578942368#0" to="-578934714"/>
    <trip id="bike70" type="bike_bicycle" depart="670.28" departLane="best" from="436291018" to="578934698"/>
    <trip id="bike71" type="bike_bicycle" depart="679.86" departLane="best" departSpeed="max" from="-593766962#1" to="5962129#2"/>
    <trip id="bike72" type="bike_bicycle" depart="689.43" departLane="best" from="436291011" to="-578942371#2"/>
    <trip id="bike74" type="bike_bicycle" depart="708.58" departLane="best" departSpeed="max" from="-578942364" to="278328405#0"/>
    <trip id="bike75" type="bike_bicycle" depart="718.16" departLane="best" departSpeed="max" from="89927838#0" to="578934724#0"/>
    <trip id="bike76" type="bike_bicycle" depart="727.74" departLane="best" from="436291016#1" to="578934689"/>
    <trip id="bike77" type="bike_bicycle" depart="737.31" departLane="best" from="-578934718#1" to="-578942372#2"/>
    <trip id="bike78" type="bike_bicycle" depart="746.89" departLane="best" departSpeed="max" from="184711452" to="578934712"/>
    <trip id="bike79" type="bike_bicycle" depart="756.46" departLane="best" from="-578942371#0" to="-578942372#1"/>
    <trip id="bike81" type="bike_bicycle" depart="775.61" departLane="best" from="-578942371#0" to="634644489"/>
    <trip id="bike82" type="bike_bicycle" depart="785.19" departLane="best" from="5962129#1" to="-578605862#2"/>
    <trip id="bike84" type="bike_bicycle" depart="804.34" departLane="best" from="-578942367#0" to="-578934715"/>
    <trip id="bike85" type="bike_bicycle" depart="813.91" departLane="best" from="641705065" to="578934701"/>
    <trip id="bike87" type="bike_bicycle" depart="833.07" departLane="best" from="578942372#2" to="-578942367#1"/>
    <trip id="bike88" type="bike_bicycle" depart="842.64" departLane="best" departSpeed="max" from="-578934709#1" to="436291016#6"/>
    <trip id="bike89" type="bike_bicycle" depart="852.22" departLane="best" from="436291011" to="436291020#2"/>
    <trip id="bike90" type="bike_bicycle" depart="861.79" departLane="best" from="578942361#1" to="578942354#0"/>
    <trip id="bike91" type="bike_bicycle" depart="871.37" departLane="best" from="89922370#5" to="-578934700#1"/>
    <trip id="bike92" type="bike_bicycle" depart="880.94" departLane="best" departSpeed="max" from="419814433#0" to="36054466#2"/>
    <trip id="bike93" type="bike_bicycle" depart="890.52" departLane="best" from="5962129#1" to="-593766964"/>
    <trip id="bike94" type="bike_bicycle" depart="900.09" departLane="best" departSpeed="max" from="-578942357" to="436291018"/>
    <trip id="bike95" type="bike_bicycle" depart="909.67" departLane="best" from="436291010" to="-5962129#3"/>
    <trip id="bike96" type="bike_bicycle" depart="919.24" departLane="best" from="-578942372#1" to="641705063#3"/>
    <trip id="bike97" type="bike_bicycle" depart="928.82" departLane="best" from="436291016#2" to="5955850#2"/>
    <trip id="bike98" type="bike_bicycle" depart="938.40" departLane="best" departSpeed="max" from="578605862#0" to="-578605861#0"/>
    <trip id="bike99" type="bike_bicycle" depart="947.97" departLane="best" from="89927838#3" to="593766963"/>
    <trip id="bike100" type="bike_bicycle" depart="957.55" departLane="best" from="642337374#1" to="641705063#3"/>
    <trip id="bike101" type="bike_bicycle" depart="967.12" departLane="best" from="5955850#0" to="-578934723"/>
    <trip id="bike102" type="bike_bicycle" depart="976.70" departLane="best" from="436291020#0" to="-578942371#2"/>
    <trip id="bike103" type="bike_bicycle" depart="986.27" departLane="best" departSpeed="max" from="419814433#0" to="-578605861#2"/>
    <trip id="bike104" type="bike_bicycle" depart="995.85" departLane="best" from="36054466#5" to="642751754#1"/>
    <trip id="bike105" type="bike_bicycle" depart="1005.42" departLane="best" departSpeed="max" from="-593766962#1" to="578942370"/>
    <trip id="bike109" type="bike_bicycle" depart="1043.73" departLane="best" departSpeed="max" from="-578942331" to="-89927838#0"/>
    <trip id="bike110" type="bike_bicycle" depart="1053.30" departLane="best" from="642337374#1" to="578934709#1"/>
    <trip id="bike113" type="bike_bicycle" depart="1082.03" departLane="best" departSpeed="max" from="436291021#0" to="5955850#1"/>
    <trip id="bike114" type="bike_bicycle" depart="1091.60" departLane="best" departSpeed="max" from="-578942334" to="642337372"/>
    <trip id="bike115" type="bike_bicycle" depart="1101.18" departLane="best" departSpeed="max" from="-578934699" to="-578942367#0"/>
    <trip id="bike116" type="bike_bicycle" depart="1110.75" departLane="best" departSpeed="max" from="578934709#0" to="578942354#0"/>
    <trip id="bike117" type="bike_bicycle" depart="1120.33" departLane="best" from="-578942371#1" to="-578934712"/>
    <trip id="bike118" type="bike_bicycle" depart="1129.90" departLane="best" from="6024091#2" to="-593766964"/>
    <trip id="bike120" type="bike_bicycle" depart="1149.06" departLane="best" from="436291010" to="578934709#1"/>
    <trip id="bike121" type="bike_bicycle" depart="1158.63" departLane="best" departSpeed="max" from="573865733#0" to="641705064#1"/>
    <trip id="bike122" type="bike_bicycle" depart="1168.21" departLane="best" departSpeed="max" from="-578942364" to="578942361#0"/>
    <trip id="bike124" type="bike_bicycle" depart="1187.36" departLane="best" from="578934719" to="-89927838#0"/>
    <trip id="bike125" type="bike_bicycle" depart="1196.93" departLane="best" from="-5962129#4" to="578942367#0"/>
    <trip id="bike127" type="bike_bicycle" depart="1216.08" departLane="best" from="89927838#3" to="89927838#3"/>
    <trip id="bike129" type="bike_bicycle" depart="1235.23" departLane="best" departSpeed="max" from="-593766962#1" to="641705064#1"/>
    <trip id="bike130" type="bike_bicycle" depart="1244.81" departLane="best" departSpeed="max" from="6024091#0" to="5962129#3"/>
    <trip id="bike131" type="bike_bicycle" depart="1254.39" departLane="best" from="36054466#3" to="-578934718#3"/>
    <trip id="bike132" type="bike_bicycle" depart="1263.96" departLane="best" from="593766963" to="578942358"/>
    <trip id="bike133" type="bike_bicycle" depart="1273.54" departLane="best" departSpeed="max" from="578934711" to="642751754#1"/>
    <trip id="bike134" type="bike_bicycle" depart="1283.11" departLane="best" from="578934718#0" to="-184711452"/>
    <trip id="bike135" type="bike_bicycle" depart="1292.69" departLane="best" departSpeed="max" from="578942375" to="-89927838#0"/>
    <trip id="bike136" type="bike_bicycle" depart="1302.26" departLane="best" from="578934718#2" to="641705065"/>
    <trip id="bike137" type="bike_bicycle" depart="1311.84" departLane="best" from="-578934719" to="-578934711"/>
    <trip id="bike138" type="bike_bicycle" depart="1321.41" departLane="best" from="-578934717#0" to="578934699"/>
    <trip id="bike139" type="bike_bicycle" depart="1330.99" departLane="best" from="-593766964" to="578934717#0"/>
    <trip id="bike140" type="bike_bicycle" depart="1340.56" departLane="best" from="578942360#0" to="-578942371#0"/>
    <trip id="bike141" type="bike_bicycle" depart="1350.14" departLane="best" departSpeed="max" from="578934715" to="-5962129#0"/>
    <trip id="bike142" type="bike_bicycle" depart="1359.72" departLane="best" from="436291020#1" to="634644489"/>
    <trip id="bike143" type="bike_bicycle" depart="1369.29" departLane="best" from="5955850#0" to="-578934700#0"/>
    <trip id="bike144" type="bike_bicycle" depart="1378.87" departLane="best" from="436291011" to="-5962129#3"/>
    <trip id="bike145" type="bike_bicycle" depart="1388.44" departLane="best" from="-184711458" to="578942368#1"/>
    <trip id="bike146" type="bike_bicycle" depart="1398.02" departLane="best" departSpeed="max" from="578934715" to="-5955850#1"/>
    <trip id="bike147" type="bike_bicycle" depart="1407.59" departLane="best" from="578942362" to="578934698"/>
    <trip id="bike148" type="bike_bicycle" depart="1417.17" departLane="best" from="436291013" to="-184711458"/>
    <trip id="bike149" type="bike_bicycle" depart="1426.74" departLane="best" departSpeed="max" from="-578934699" to="5962129#4"/>
    <trip id="bike150" type="bike_bicycle" depart="1436.32" departLane="best" from="623099335" to="578934691#1"/>
    <trip id="bike151" type="bike_bicycle" depart="1445.89" departLane="best" from="593766963" to="578934709#1"/>
    <trip id="bike152" type="bike_bicycle" depart="1455.47" departLane="best" departSpeed="max" from="-578942331" to="-578934714"/>
    <trip id="bike153" type="bike_bicycle" depart="1465.05" departLane="best" from="-5962129#2" to="6024091#5"/>
    <trip id="bike154" type="bike_bicycle" depart="1474.62" departLane="best" from="578942371#2" to="5955850#2"/>
    <trip id="bike155" type="bike_bicycle" depart="1484.20" departLane="best" from="6024091#5" to="-578942371#1"/>
    <trip id="bike156" type="bike_bicycle" depart="1493.77" departLane="best" from="-578942372#1" to="-578934709#0"/>
    <trip id="bike157" type="bike_bicycle" depart="1503.35" departLane="best" from="578942369#1" to="5962129#5"/>
    <trip id="bike158" type="bike_bicycle" depart="1512.92" departLane="best" from="419814433#1" to="578934718#0"/>
    <trip id="bike159" type="bike_bicycle" depart="1522.50" departLane="best" departSpeed="max" from="-578942331" to="641705064#0"/>
    <trip id="bike160" type="bike_bicycle" depart="1532.07" departLane="best" from="5962129#2" to="642361032"/>
    <trip id="bike161" type="bike_bicycle" depart="1541.65" departLane="best" from="578942374" to="5962129#4"/>
    <trip id="bike163" type="bike_bicycle" depart="1560.80" departLane="best" departSpeed="max" from="184711452" to="641705064#0"/>
    <trip id="bike164" type="bike_bicycle" depart="1570.38" departLane="best" from="578942372#1" to="5962129#0"/>
    <trip id="bike165" type="bike_bicycle" depart="1579.95" departLane="best" from="578942374" to="-5962129#0"/>
    <trip id="bike166" type="bike_bicycle" depart="1589.53" departLane="best" from="578942371#0" to="-578934711"/>
    <trip id="bike167" type="bike_bicycle" depart="1599.10" departLane="best" from="5962129#4" to="5955850#2"/>
    <trip id="bike168" type="bike_bicycle" depart="1608.68" departLane="best" from="-578942367#2" to="593766960"/>
    <trip id="bike170" type="bike_bicycle" depart="1627.83" departLane="best" from="578942371#2" to="-578942372#2"/>
    <trip id="bike172" type="bike_bicycle" depart="1646.98" departLane="best" from="-89927838#3" to="5962129#0"/>
    <trip id="bike173" type="bike_bicycle" depart="1656.55" departLane="best" from="642337374#1" to="-5962129#3"/>
    <trip id="bike174" type="bike_bicycle" depart="1666.13" departLane="best" departSpeed="max" from="578934715" to="436291016#0"/>
    <trip id="bike175" type="bike_bicycle" depart="1675.71" departLane="best" departSpeed="max" from="89922370#0" to="578934691#0"/>
    <trip id="bike176" type="bike_bicycle" depart="1685.28" departLane="best" from="641705065" to="-578934711"/>
    <trip id="bike177" type="bike_bicycle" depart="1694.86" departLane="best" from="642751754#0" to="-578942358"/>
    <trip id="bike178" type="bike_bicycle" depart="1704.43" departLane="best" departSpeed="max" from="642337374#0" to="-5962129#0"/>
    <trip id="bike179" type="bike_bicycle" depart="1714.01" departLane="best" departSpeed="max" from="-578934717#1" to="436291016#6"/>
    <trip id="bike180" type="bike_bicycle" depart="1723.58" departLane="best" from="578942361#1" to="278328405#0"/>
    <trip id="bike181" type="bike_bicycle" depart="1733.16" departLane="best" departSpeed="max" from="578934711" to="578605861#2"/>
    <trip id="bike182" type="bike_bicycle" depart="1742.73" departLane="best" from="36054466#7" to="578934702"/>
    <trip id="bike183" type="bike_bicycle" depart="1752.31" departLane="best" from="-593766960" to="578942360#0"/>
    <trip id="bike184" type="bike_bicycle" depart="1761.88" departLane="best" from="-184711458" to="641705063#3"/>
    <trip id="bike187" type="bike_bicycle" depart="1790.61" departLane="best" from="36054466#2" to="-578605862#2"/>
    <trip id="bike188" type="bike_bicycle" depart="1800.19" departLane="best" from="578934718#3" to="36054466#10"/>
    <trip id="bike189" type="bike_bicycle" depart="1809.76" departLane="best" from="-5962129#3" to="5955850#0"/>
    <trip id="bike190" type="bike_bicycle" depart="1819.34" departLane="best" from="578942360#0" to="-89927838#0"/>
    <trip id="bike191" type="bike_bicycle" depart="1828.91" departLane="best" from="-5962129#2" to="436291016#10"/>
    <trip id="bike192" type="bike_bicycle" depart="1838.49" departLane="best" departSpeed="max" from="419814433#0" to="-89927838#0"/>
    <trip id="bike193" type="bike_bicycle" depart="1848.06" departLane="best" from="-578934718#2" to="436291016#3"/>
    <trip id="bike195" type="bike_bicycle" depart="1867.21" departLane="best" from="623099335" to="578934717#1"/>
    <trip id="bike196" type="bike_bicycle" depart="1876.79" departLane="best" from="-5962129#0" to="578934698"/>
    <trip id="bike197" type="bike_bicycle" depart="1886.37" departLane="best" from="-184711458" to="-5962129#5"/>
    <trip id="bike198" type="bike_bicycle" depart="1895.94" departLane="best" from="436291013" to="578934709#1"/>
    <trip id="bike199" type="bike_bicycle" depart="1905.52" departLane="best" from="578934718#0" to="436291020#1"/>
    <trip id="bike200" type="bike_bicycle" depart="1915.09" departLane="best" from="436291016#2" to="-578942371#2"/>
    <trip id="bike202" type="bike_bicycle" depart="1934.24" departLane="best" from="578942371#2" to="-578934726"/>
    <trip id="bike203" type="bike_bicycle" depart="1943.82" departLane="best" from="-578934700#0" to="578605862#2"/>
    <trip id="bike204" type="bike_bicycle" depart="1953.39" departLane="best" departSpeed="max" from="578934714" to="36054466#10"/>
    <trip id="bike205" type="bike_bicycle" depart="1962.97" departLane="best" departSpeed="max" from="578942375" to="578942367#0"/>
    <trip id="bike206" type="bike_bicycle" depart="1972.54" departLane="best" from="578934722" to="-578942372#2"/>
    <trip id="bike208" type="bike_bicycle" depart="1991.70" departLane="best" from="-578942372#0" to="436291029"/>
    <trip id="bike209" type="bike_bicycle" depart="2001.27" departLane="best" from="5955850#1" to="-578605862#2"/>
    <trip id="bike210" type="bike_bicycle" depart="2010.85" departLane="best" from="419814433#4" to="578934718#3"/>
    <trip id="bike211" type="bike_bicycle" depart="2020.42" departLane="best" from="-578942358" to="578942357"/>
    <trip id="bike212" type="bike_bicycle" depart="2030.00" departLane="best" from="436291020#2" to="-593766963"/>
    <trip id="bike213" type="bike_bicycle" depart="2039.57" departLane="best" from="578934718#1" to="-184711452"/>
    <trip id="bike214" type="bike_bicycle" depart="2049.15" departLane="best" from="578942367#0" to="578942368#1"/>
    <trip id="bike215" type="bike_bicycle" depart="2058.72" departLane="best" from="-578934717#0" to="436291016#4"/>
    <trip id="bike216" type="bike_bicycle" depart="2068.30" departLane="best" from="-578942355" to="642337372"/>
    <trip id="bike217" type="bike_bicycle" depart="2077.88" departLane="best" from="436291064#1" to="-578605861#0"/>
    <trip id="bike218" type="bike_bicycle" depart="2087.45" departLane="best" from="-578942372#1" to="5955850#0"/>
    <trip id="bike220" type="bike_bicycle" depart="2106.60" departLane="best" from="578934718#3" to="642751754#1"/>
    <trip id="bike221" type="bike_bicycle" depart="2116.18" departLane="best" departSpeed="max" from="578934709#0" to="641705146#2"/>
    <trip id="bike222" type="bike_bicycle" depart="2125.75" departLane="best" from="6024091#2" to="578934717#1"/>
    <trip id="bike223" type="bike_bicycle" depart="2135.33" departLane="best" from="578942360#0" to="578605861#1"/>
    <trip id="bike224" type="bike_bicycle" depart="2144.90" departLane="best" from="593766961" to="578934698"/>
    <trip id="bike225" type="bike_bicycle" depart="2154.48" departLane="best" from="6024091#5" to="578942364"/>
    <trip id="bike226" type="bike_bicycle" depart="2164.05" departLane="best" from="436291018" to="-5955850#1"/>
    <trip id="bike227" type="bike_bicycle" depart="2173.63" departLane="best" from="-578942372#1" to="578934719"/>
    <trip id="bike228" type="bike_bicycle" depart="2183.21" departLane="best" from="578942368#0" to="578934689"/>
    <trip id="bike229" type="bike_bicycle" depart="2192.78" departLane="best" departSpeed="max" from="578934714" to="-5962129#2"/>
    <trip id="bike230" type="bike_bicycle" depart="2202.36" departLane="best" departSpeed="max" from="-578934699" to="-5962129#5"/>
    <trip id="bike231" type="bike_bicycle" depart="2211.93" departLane="best" from="-593766964" to="36054466#0"/>
    <trip id="bike233" type="bike_bicycle" depart="2231.08" departLane="best" from="-578942371#0" to="578942356"/>
    <trip id="bike234" type="bike_bicycle" depart="2240.66" departLane="best" from="578942354#1" to="-578605862#0"/>
    <trip id="bike235" type="bike_bicycle" depart="2250.23" departLane="best" from="419814433#1" to="578934691#1"/>
    <trip id="bike236" type="bike_bicycle" depart="2259.81" departLane="best" from="419814433#4" to="-578942371#0"/>
    <trip id="bike237" type="bike_bicycle" depart="2269.38" departLane="best" from="436291010" to="623099335"/>
    <trip id="bike238" type="bike_bicycle" depart="2278.96" departLane="best" from="578934700#1" to="578942357"/>
    <trip id="bike239" type="bike_bicycle" depart="2288.54" departLane="best" from="5962129#0" to="578942368#0"/>
    <trip id="bike240" type="bike_bicycle" depart="2298.11" departLane="best" from="36054466#6" to="-184711452"/>
    <trip id="bike242" type="bike_bicycle" depart="2317.26" departLane="best" from="5955850#1" to="641705146#2"/>
    <trip id="bike243" type="bike_bicycle" depart="2326.84" departLane="best" from="436291010" to="578942365"/>
    <trip id="bike245" type="bike_bicycle" depart="2345.99" departLane="best" from="-578942367#2" to="-578942372#0"/>
    <trip id="bike246" type="bike_bicycle" depart="2355.56" departLane="best" from="436291016#1" to="-419814433#0"/>
    <trip id="bike247" type="bike_bicycle" depart="2365.14" departLane="best" departSpeed="max" from="184711452" to="578942354#1"/>
    <trip id="bike248" type="bike_bicycle" depart="2374.71" departLane="best" departSpeed="max" from="419814433#0" to="-578934723"/>
    <trip id="bike250" type="bike_bicycle" depart="2393.87" departLane="best" from="578934713#1" to="-419814433#0"/>
    <trip id="bike251" type="bike_bicycle" depart="2403.44" departLane="best" from="36054466#9" to="578934700#0"/>
    <trip id="bike253" type="bike_bicycle" depart="2422.59" departLane="best" from="-578934719" to="436291020#1"/>
    <trip id="bike255" type="bike_bicycle" depart="2441.74" departLane="best" from="-578942367#0" to="36054466#1"/>
    <trip id="bike256" type="bike_bicycle" depart="2451.32" departLane="best" from="578942367#2" to="419814433#2"/>
    <trip id="bike257" type="bike_bicycle" depart="2460.89" departLane="best" from="578942367#0" to="593766963"/>
    <trip id="bike259" type="bike_bicycle" depart="2480.04" departLane="best" from="-419814433#4" to="578934691#1"/>
    <trip id="bike260" type="bike_bicycle" depart="2489.62" departLane="best" from="89927838#3" to="36054466#5"/>
    <trip id="bike261" type="bike_bicycle" depart="2499.20" departLane="best" from="578934717#0" to="578942370"/>
    <trip id="bike262" type="bike_bicycle" depart="2508.77" departLane="best" from="578934718#0" to="578942367#0"/>
    <trip id="bike263" type="bike_bicycle" depart="2518.35" departLane="best" from="642337372" to="-578942370"/>
    <trip id="bike264" type="bike_bicycle" depart="2527.92" departLane="best" from="-419814433#4" to="-578934718#2"/>
    <trip id="bike267" type="bike_bicycle" depart="2556.65" departLane="best" from="578942354#0" to="578942368#0"/>
    <trip id="bike268" type="bike_bicycle" depart="2566.22" departLane="best" departSpeed="max" from="-578942344" to="578934717#0"/>
    <trip id="bike269" type="bike_bicycle" depart="2575.80" departLane="best" from="578942365" to="-578934711"/>
    <trip id="bike270" type="bike_bicycle" depart="2585.37" departLane="best" departSpeed="max" from="578942375" to="642337373"/>
    <trip id="bike272" type="bike_bicycle" depart="2604.53" departLane="best" from="-5962129#3" to="578942354#1"/>
    <trip id="bike273" type="bike_bicycle" depart="2614.10" departLane="best" departSpeed="max" from="642337374#0" to="436291016#0"/>
    <trip id="bike274" type="bike_bicycle" depart="2623.68" departLane="best" from="578942358" to="-578934691#0"/>
    <trip id="bike275" type="bike_bicycle" depart="2633.25" departLane="best" from="578934726" to="578934718#2"/>
    <trip id="bike276" type="bike_bicycle" depart="2642.83" departLane="best" from="-578934712" to="578942369#0"/>
    <trip id="bike277" type="bike_bicycle" depart="2652.40" departLane="best" from="5955850#1" to="578934716"/>
    <trip id="bike278" type="bike_bicycle" depart="2661.98" departLane="best" from="-578934718#1" to="642751754#1"/>
    <trip id="bike279" type="bike_bicycle" depart="2671.55" departLane="best" from="578942370" to="36054466#4"/>
    <trip id="bike280" type="bike_bicycle" depart="2681.13" departLane="best" from="436291013" to="36054466#9"/>
    <trip id="bike281" type="bike_bicycle" depart="2690.70" departLane="best" from="436291031" to="36054466#3"/>
    <trip id="bike282" type="bike_bicycle" depart="2700.28" departLane="best" from="5955850#1" to="593766961"/>
    <trip id="bike283" type="bike_bicycle" depart="2709.86" departLane="best" from="-578934717#0" to="642337372"/>
    <trip id="bike284" type="bike_bicycle" depart="2719.43" departLane="best" departSpeed="max" from="578934715" to="593766962#0"/>
    <trip id="bike285" type="bike_bicycle" depart="2729.01" departLane="best" from="578942355" to="436291016#7"/>