<?xml version="1.0" encoding="UTF-8"?>

<!-- generated on Thu Jul 11 16:11:12 2019 by Eclipse SUMO netconvert Version 1.2.0
<configuration xmlns:xsi="http://www.w3.org/2001/XMLSchema-instance" xsi:noNamespaceSchemaLocation="http://sumo.dlr.de/xsd/netconvertConfiguration.xsd">

    <input>
        <type-files value="/usr/share/sumo/data/typemap/osmNetconvert.typ.xml,/usr/share/sumo/data/typemap/osmNetconvertUrbanDe.typ.xml,/usr/share/sumo/data/typemap/osmNetconvertPedestrians.typ.xml,/usr/share/sumo/data/typemap/osmNetconvertBicycle.typ.xml"/>
        <osm-files value="osm_bbox.osm.xml"/>
    </input>

    <output>
        <output-file value="osm.net.xml"/>
        <output.street-names value="true"/>
        <output.original-names value="true"/>
    </output>

    <projection>
        <proj.utm value="true"/>
    </projection>

    <processing>
        <geometry.remove value="true"/>
        <roundabouts.guess value="true"/>
    </processing>

    <tls_building>
        <tls.discard-simple value="true"/>
        <tls.join value="true"/>
        <tls.guess-signals value="true"/>
        <tls.default-type value="actuated"/>
    </tls_building>

    <ramp_guessing>
        <ramps.guess value="true"/>
    </ramp_guessing>

    <junctions>
        <junctions.join value="true"/>
        <junctions.corner-detail value="5"/>
    </junctions>

    <pedestrian>
        <crossings.guess value="true"/>
    </pedestrian>

    <report>
        <verbose value="true"/>
    </report>

</configuration>
-->

<net version="1.1" junctionCornerDetail="5" walkingareas="true" limitTurnSpeed="5.50" xmlns:xsi="http://www.w3.org/2001/XMLSchema-instance" xsi:noNamespaceSchemaLocation="http://sumo.dlr.de/xsd/net_file.xsd">

    <location netOffset="-483980.02,-3619901.67" convBoundary="0.00,0.00,1348.00,695.31" origBoundary="-117.170955,32.716778,-117.156568,32.723050" projParameter="+proj=utm +zone=11 +ellps=WGS84 +datum=WGS84 +units=m +no_defs"/>

    <type id="cycleway.lane" allow="bicycle" bikeLaneWidth="1.00"/>
    <type id="cycleway.opposite_lane" allow="bicycle" bikeLaneWidth="1.00"/>
    <type id="cycleway.opposite_track" allow="bicycle" bikeLaneWidth="1.50"/>
    <type id="cycleway.track" allow="bicycle" bikeLaneWidth="1.50"/>
    <type id="highway.bridleway" priority="1" numLanes="1" speed="2.78" allow="pedestrian" oneway="1" width="2.00"/>
    <type id="highway.bus_guideway" priority="1" numLanes="1" speed="13.89" allow="bus" oneway="1"/>
    <type id="highway.cycleway" priority="1" numLanes="1" speed="8.33" allow="bicycle" oneway="0" width="1.00"/>
    <type id="highway.footway" priority="1" numLanes="1" speed="2.78" allow="pedestrian" oneway="1" width="2.00"/>
    <type id="highway.ford" priority="1" numLanes="1" speed="2.78" allow="army" oneway="0"/>
    <type id="highway.living_street" priority="2" numLanes="1" speed="2.78" disallow="tram rail_urban rail rail_electric ship" oneway="0"/>
    <type id="highway.motorway" priority="14" numLanes="2" speed="27.78" allow="private emergency authority army vip passenger hov taxi bus coach delivery truck trailer motorcycle evehicle custom1 custom2" oneway="1"/>
    <type id="highway.motorway_link" priority="9" numLanes="1" speed="16.67" allow="private emergency authority army vip passenger hov taxi bus coach delivery truck trailer motorcycle evehicle custom1 custom2" oneway="1"/>
    <type id="highway.path" priority="1" numLanes="1" speed="2.78" allow="bicycle pedestrian" oneway="1" width="2.00"/>
    <type id="highway.pedestrian" priority="1" numLanes="1" speed="2.78" allow="pedestrian" oneway="1" width="2.00"/>
    <type id="highway.primary" priority="12" numLanes="2" speed="13.89" disallow="tram rail_urban rail rail_electric pedestrian ship" oneway="0" sidewalkWidth="3.00"/>
    <type id="highway.primary_link" priority="7" numLanes="1" speed="13.89" disallow="tram rail_urban rail rail_electric pedestrian ship" oneway="0" sidewalkWidth="3.00"/>
    <type id="highway.raceway" priority="15" numLanes="2" speed="83.33" allow="vip" oneway="0"/>
    <type id="highway.residential" priority="3" numLanes="1" speed="13.89" disallow="tram rail_urban rail rail_electric pedestrian ship" oneway="0" sidewalkWidth="2.00"/>
    <type id="highway.secondary" priority="11" numLanes="2" speed="13.89" disallow="tram rail_urban rail rail_electric pedestrian ship" oneway="0" sidewalkWidth="3.00"/>
    <type id="highway.secondary_link" priority="6" numLanes="1" speed="13.89" disallow="tram rail_urban rail rail_electric pedestrian ship" oneway="0" sidewalkWidth="3.00"/>
    <type id="highway.service" priority="1" numLanes="1" speed="5.56" allow="delivery bicycle pedestrian" oneway="0"/>
    <type id="highway.stairs" priority="1" numLanes="1" speed="1.39" allow="pedestrian" oneway="1" width="2.00"/>
    <type id="highway.step" priority="1" numLanes="1" speed="1.39" allow="pedestrian" oneway="1" width="2.00"/>
    <type id="highway.steps" priority="1" numLanes="1" speed="1.39" allow="pedestrian" oneway="1" width="2.00"/>
    <type id="highway.tertiary" priority="10" numLanes="1" speed="13.89" disallow="tram rail_urban rail rail_electric pedestrian ship" oneway="0" sidewalkWidth="3.00"/>
    <type id="highway.tertiary_link" priority="5" numLanes="1" speed="13.89" disallow="tram rail_urban rail rail_electric pedestrian ship" oneway="0" sidewalkWidth="2.00"/>
    <type id="highway.track" priority="1" numLanes="1" speed="5.56" disallow="tram rail_urban rail rail_electric ship" oneway="0"/>
    <type id="highway.trunk" priority="13" numLanes="2" speed="13.89" disallow="tram rail_urban rail rail_electric bicycle pedestrian ship" oneway="0"/>
    <type id="highway.trunk_link" priority="8" numLanes="1" speed="13.89" disallow="tram rail_urban rail rail_electric bicycle pedestrian ship" oneway="0"/>
    <type id="highway.unclassified" priority="4" numLanes="1" speed="13.89" disallow="tram rail_urban rail rail_electric pedestrian ship" oneway="0" sidewalkWidth="2.00"/>
    <type id="highway.unsurfaced" priority="1" numLanes="1" speed="8.33" disallow="tram rail_urban rail rail_electric ship" oneway="0"/>
    <type id="railway.light_rail" priority="19" numLanes="1" speed="27.78" allow="rail_urban" oneway="1"/>
    <type id="railway.preserved" priority="16" numLanes="1" speed="27.78" allow="rail" oneway="1"/>
    <type id="railway.rail" priority="20" numLanes="1" speed="83.33" allow="rail rail_electric" oneway="1"/>
    <type id="railway.subway" priority="18" numLanes="1" speed="27.78" allow="rail_urban" oneway="1"/>
    <type id="railway.tram" priority="17" numLanes="1" speed="13.89" allow="tram" oneway="1"/>

    <edge id=":1458207133_w0" function="walkingarea">
        <lane id=":1458207133_w0_0" index="0" allow="pedestrian" speed="1.00" length="1.41" width="2.00" shape="929.46,180.39 929.50,178.39 929.50,178.39 927.50,178.35 928.82,180.33 928.32,180.17 927.94,179.89 927.68,179.51 927.53,178.99"/>
    </edge>
    <edge id=":1458207150_w0" function="walkingarea">
        <lane id=":1458207150_w0_0" index="0" allow="pedestrian" speed="1.00" length="1.41" width="2.00" shape="996.69,124.96 996.65,126.96 996.65,126.96 998.65,127.00 997.33,125.02 997.83,125.19 998.21,125.46 998.47,125.85 998.61,126.36"/>
    </edge>
    <edge id=":1945592456_0" function="internal">
        <lane id=":1945592456_0_0" index="0" allow="delivery bicycle pedestrian" speed="3.65" length="4.67" shape="996.68,279.80 997.87,280.61 998.27,281.41 997.86,282.21 996.66,283.00"/>
    </edge>
    <edge id=":1945592457_0" function="internal">
        <lane id=":1945592457_0_0" index="0" allow="delivery bicycle pedestrian" speed="3.65" length="4.67" shape="935.71,292.02 936.90,292.83 937.30,293.63 936.89,294.43 935.69,295.22"/>
    </edge>
    <edge id=":1952127089_0" function="internal">
        <lane id=":1952127089_0_0" index="0" allow="delivery bicycle pedestrian" speed="3.65" length="4.67" shape="826.43,183.65 825.23,182.85 824.82,182.06 825.21,181.25 826.41,180.45"/>
    </edge>
    <edge id=":1952127095_0" function="internal">
        <lane id=":1952127095_0_0" index="0" allow="delivery bicycle pedestrian" speed="3.65" length="4.67" shape="754.36,183.93 755.20,182.76 756.02,182.38 756.80,182.81 757.56,184.04"/>
    </edge>
    <edge id=":1952127148_0" function="internal">
        <lane id=":1952127148_0_0" index="0" allow="delivery bicycle pedestrian" speed="3.65" length="4.67" shape="745.62,177.52 744.42,176.72 744.02,175.92 744.42,175.12 745.62,174.32"/>
    </edge>
    <edge id=":1952127284_0" function="internal">
        <lane id=":1952127284_0_0" index="0" allow="delivery bicycle pedestrian" speed="5.56" length="5.00" shape="790.75,177.40 785.75,177.41"/>
    </edge>
    <edge id=":1952127284_1" function="internal">
        <lane id=":1952127284_1_0" index="0" allow="delivery bicycle pedestrian" speed="3.65" length="2.34" shape="790.75,177.40 789.55,176.60 789.15,175.80"/>
    </edge>
    <edge id=":1952127284_4" function="internal">
        <lane id=":1952127284_4_0" index="0" allow="delivery bicycle pedestrian" speed="3.65" length="2.34" shape="789.15,175.80 789.54,175.00 790.74,174.20"/>
    </edge>
    <edge id=":1952127284_2" function="internal">
        <lane id=":1952127284_2_0" index="0" allow="delivery bicycle pedestrian" speed="5.56" length="5.00" shape="785.74,174.21 790.74,174.20"/>
    </edge>
    <edge id=":1952127284_3" function="internal">
        <lane id=":1952127284_3_0" index="0" allow="delivery bicycle pedestrian" speed="3.65" length="2.34" shape="785.74,174.21 786.94,175.01 787.35,175.81"/>
    </edge>
    <edge id=":1952127284_5" function="internal">
        <lane id=":1952127284_5_0" index="0" allow="delivery bicycle pedestrian" speed="3.65" length="2.34" shape="787.35,175.81 786.95,176.61 785.75,177.41"/>
    </edge>
    <edge id=":1952127284_w0" function="walkingarea">
        <lane id=":1952127284_w0_0" index="0" allow="pedestrian" speed="1.00" length="4.98" width="3.20" shape="790.75,179.00 790.75,175.80 790.75,175.80 790.74,172.60 789.22,171.08 787.22,171.11 785.74,172.61 785.75,175.81 785.75,175.81 785.75,179.01"/>
    </edge>
    <edge id=":1952127285_0" function="internal">
        <lane id=":1952127285_0_0" index="0" allow="delivery bicycle pedestrian" speed="5.14" length="5.06" shape="766.89,177.46 765.56,177.66 764.59,178.26 763.98,179.25 763.73,180.63"/>
    </edge>
    <edge id=":1952127285_1" function="internal">
        <lane id=":1952127285_1_0" index="0" allow="delivery bicycle pedestrian" speed="5.56" length="6.20" shape="766.89,177.46 760.69,177.48"/>
    </edge>
    <edge id=":1952127285_2" function="internal">
        <lane id=":1952127285_2_0" index="0" allow="delivery bicycle pedestrian" speed="3.65" length="4.67" shape="766.89,177.46 765.69,176.66 765.29,175.86 765.69,175.06 766.88,174.26"/>
    </edge>
    <edge id=":1952127285_3" function="internal">
        <lane id=":1952127285_3_0" index="0" allow="delivery bicycle pedestrian" speed="5.56" length="6.21" shape="760.68,174.28 766.88,174.26"/>
    </edge>
    <edge id=":1952127285_4" function="internal">
        <lane id=":1952127285_4_0" index="0" allow="delivery bicycle pedestrian" speed="5.56" length="7.88" shape="760.68,174.28 762.11,174.67 763.10,175.86 763.64,177.85 763.73,180.63"/>
    </edge>
    <edge id=":1952127285_5" function="internal">
        <lane id=":1952127285_5_0" index="0" allow="delivery bicycle pedestrian" speed="3.65" length="4.67" shape="760.68,174.28 761.88,175.07 762.28,175.87 761.89,176.67 760.69,177.48"/>
    </edge>
    <edge id=":1952127285_w0" function="walkingarea">
        <lane id=":1952127285_w0_0" index="0" allow="pedestrian" speed="1.00" length="5.58" width="3.20" shape="766.90,179.06 766.89,175.86 766.89,175.86 766.88,172.66 760.67,172.68 760.68,175.88 760.68,175.88 760.69,179.08 762.13,180.57 765.33,180.70 766.44,179.11 766.06,179.24 765.76,179.47 765.53,179.79 765.39,180.20"/>
    </edge>
    <edge id=":1952127286_0" function="internal">
        <lane id=":1952127286_0_0" index="0" allow="delivery bicycle pedestrian" speed="5.56" length="5.53" shape="751.26,177.50 745.73,177.52"/>
    </edge>
    <edge id=":1952127286_1" function="internal">
        <lane id=":1952127286_1_0" index="0" allow="delivery bicycle pedestrian" speed="3.65" length="4.67" shape="751.26,177.50 750.05,176.71 749.65,175.91 750.05,175.11 751.25,174.30"/>
    </edge>
    <edge id=":1952127286_2" function="internal">
        <lane id=":1952127286_2_0" index="0" allow="delivery bicycle pedestrian" speed="5.56" length="5.53" shape="745.72,174.32 751.25,174.30"/>
    </edge>
    <edge id=":1952127286_3" function="internal">
        <lane id=":1952127286_3_0" index="0" allow="delivery bicycle pedestrian" speed="3.65" length="4.67" shape="745.72,174.32 746.92,175.11 747.32,175.91 746.92,176.71 745.73,177.52"/>
    </edge>
    <edge id=":1952127286_4" function="internal">
        <lane id=":1952127286_4_0" index="0" allow="delivery bicycle pedestrian" speed="4.81" length="4.48" shape="748.15,180.63 748.01,179.26 747.55,178.29 746.79,177.71 745.73,177.52"/>
    </edge>
    <edge id=":1952127286_5" function="internal">
        <lane id=":1952127286_5_0" index="0" allow="delivery bicycle pedestrian" speed="5.56" length="7.75" shape="748.15,180.63 748.36,177.86 748.94,175.89 749.91,174.70 751.25,174.30"/>
    </edge>
    <edge id=":1952127286_w0" function="walkingarea">
        <lane id=":1952127286_w0_0" index="0" allow="pedestrian" speed="1.00" length="5.24" width="3.20" shape="751.26,179.10 751.25,175.90 751.25,175.90 751.24,172.70 745.72,172.72 745.72,175.92 745.72,175.92 745.73,179.12 746.55,180.62 749.75,180.64 750.80,179.15 750.43,179.28 750.13,179.49 749.92,179.79 749.80,180.17"/>
    </edge>
    <edge id=":1952180680_0" function="internal">
        <lane id=":1952180680_0_0" index="0" disallow="tram rail_urban rail rail_electric pedestrian ship" speed="6.04" length="7.60" shape="914.79,172.82 917.48,172.62 919.40,172.04 920.56,171.08 920.95,169.74"/>
    </edge>
    <edge id=":1952180680_1" function="internal">
        <lane id=":1952180680_1_0" index="0" allow="delivery bicycle pedestrian" speed="3.65" length="4.67" shape="914.79,172.82 915.99,173.61 916.39,174.41 916.00,175.21 914.80,176.02"/>
    </edge>
    <edge id=":1952180680_2" function="internal">
        <lane id=":1952180680_2_0" index="0" allow="delivery bicycle pedestrian" speed="6.01" length="7.60" shape="920.89,179.14 920.52,177.77 919.38,176.79 917.47,176.21 914.80,176.02"/>
    </edge>
    <edge id=":1952180680_3" function="internal">
        <lane id=":1952180680_3_0" index="0" disallow="tram rail_urban rail rail_electric pedestrian ship" speed="13.89" length="9.40" shape="920.89,179.14 920.95,169.74"/>
        <lane id=":1952180680_3_1" index="1" disallow="tram rail_urban rail rail_electric pedestrian ship" speed="13.89" length="9.40" shape="924.09,179.16 924.15,169.76"/>
    </edge>
    <edge id=":1952180680_w0" function="walkingarea">
        <lane id=":1952180680_w0_0" index="0" allow="pedestrian" speed="1.00" length="5.87" width="3.20" shape="919.35,169.73 916.35,169.71 914.79,171.22 914.79,174.42 914.79,174.42 914.80,177.62 916.29,179.11 919.29,179.13"/>
    </edge>
    <edge id=":1952180683_0" function="internal">
        <lane id=":1952180683_0_0" index="0" disallow="tram rail_urban rail rail_electric pedestrian ship" speed="6.08" length="7.76" shape="926.46,295.18 925.10,294.78 924.14,293.59 923.57,291.62 923.39,288.86"/>
    </edge>
    <edge id=":1952180683_1" function="internal">
        <lane id=":1952180683_1_0" index="0" allow="delivery bicycle pedestrian" speed="3.65" length="4.67" shape="926.46,295.18 925.26,294.37 924.87,293.57 925.27,292.77 926.48,291.98"/>
    </edge>
    <edge id=":1952180683_2" function="internal">
        <lane id=":1952180683_2_0" index="0" disallow="tram rail_urban rail rail_electric pedestrian ship" speed="13.89" length="9.40" shape="920.13,298.24 920.19,288.84"/>
        <lane id=":1952180683_2_1" index="1" disallow="tram rail_urban rail rail_electric pedestrian ship" speed="13.89" length="9.40" shape="923.33,298.26 923.39,288.86"/>
    </edge>
    <edge id=":1952180683_4" function="internal">
        <lane id=":1952180683_4_0" index="0" allow="delivery bicycle pedestrian" speed="6.09" length="7.76" shape="923.33,298.26 923.54,295.50 924.14,293.54 925.12,292.36 926.48,291.98"/>
    </edge>
    <edge id=":1952180683_c0" function="crossing" crossingEdges="436291020#1">
        <lane id=":1952180683_c0_0" index="0" allow="pedestrian" speed="1.00" length="6.40" width="4.00" shape="918.58,290.83 924.98,290.87"/>
    </edge>
    <edge id=":1952180683_w0" function="walkingarea">
        <lane id=":1952180683_w0_0" index="0" allow="pedestrian" speed="1.00" length="3.21" width="4.00" shape="926.45,296.78 926.47,293.58 926.47,293.58 926.48,290.38 924.99,288.87 924.97,292.87"/>
    </edge>
    <edge id=":1952180683_w1" function="walkingarea">
        <lane id=":1952180683_w1_0" index="0" allow="pedestrian" speed="1.00" length="6.48" width="4.00" shape="918.57,292.83 918.59,288.83 915.59,288.81 915.53,298.21 918.53,298.23"/>
    </edge>
    <edge id=":1952180685_0" function="internal">
        <lane id=":1952180685_0_0" index="0" disallow="tram rail_urban rail rail_electric pedestrian ship" speed="6.02" length="7.58" shape="967.21,353.15 967.00,350.49 966.41,348.58 965.43,347.44 964.07,347.07"/>
    </edge>
    <edge id=":1952180685_1" function="internal">
        <lane id=":1952180685_1_0" index="0" allow="delivery bicycle pedestrian" speed="3.65" length="4.67" shape="967.21,353.15 968.00,351.95 968.80,351.55 969.60,351.94 970.41,353.14"/>
    </edge>
    <edge id=":1952180685_2" function="internal">
        <lane id=":1952180685_2_0" index="0" allow="delivery bicycle pedestrian" speed="6.03" length="7.58" shape="973.47,347.01 972.12,347.40 971.16,348.55 970.59,350.47 970.41,353.14"/>
    </edge>
    <edge id=":1952180685_3" function="internal">
        <lane id=":1952180685_3_0" index="0" disallow="tram rail_urban rail rail_electric pedestrian ship" speed="13.89" length="9.40" shape="973.47,347.01 964.07,347.07"/>
        <lane id=":1952180685_3_1" index="1" disallow="tram rail_urban rail rail_electric pedestrian ship" speed="13.89" length="9.40" shape="973.45,343.81 964.05,343.87"/>
    </edge>
    <edge id=":1952180685_w0" function="walkingarea">
        <lane id=":1952180685_w0_0" index="0" allow="pedestrian" speed="1.00" length="5.87" width="3.20" shape="964.08,348.67 964.10,351.67 965.61,353.16 968.81,353.15 968.81,353.15 972.01,353.13 973.50,351.61 973.48,348.61"/>
    </edge>
    <edge id=":2654205181_0" function="internal">
        <lane id=":2654205181_0_0" index="0" disallow="tram rail_urban rail rail_electric pedestrian ship" speed="3.65" length="4.67" shape="753.08,555.61 752.29,556.82 751.49,557.22 750.69,556.83 749.88,555.63"/>
    </edge>
    <edge id=":2654205181_w0" function="walkingarea">
        <lane id=":2654205181_w0_0" index="0" allow="pedestrian" speed="1.00" length="9.40" width="3.00" shape="748.28,555.64 745.28,555.65 757.68,555.59 754.68,555.60"/>
    </edge>
    <edge id=":4341675279_0" function="internal">
        <lane id=":4341675279_0_0" index="0" disallow="tram rail_urban rail rail_electric pedestrian ship" speed="13.89" length="8.21" shape="670.88,202.26 671.11,204.66 671.65,206.27 672.20,207.87 672.43,210.27"/>
        <lane id=":4341675279_0_1" index="1" disallow="tram rail_urban rail rail_electric pedestrian ship" speed="13.89" length="8.21" shape="670.88,202.26 670.61,204.66 670.05,206.26 669.50,207.86 669.23,210.25"/>
        <lane id=":4341675279_0_2" index="2" disallow="tram rail_urban rail rail_electric pedestrian ship" speed="13.89" length="8.21" shape="667.68,202.24 667.41,204.64 666.85,206.24 666.30,207.84 666.03,210.24"/>
        <lane id=":4341675279_0_3" index="3" disallow="tram rail_urban rail rail_electric pedestrian ship" speed="13.89" length="8.21" shape="664.48,202.23 664.21,204.62 663.65,206.22 663.10,207.82 662.83,210.22"/>
    </edge>
    <edge id=":4341675279_w0" function="walkingarea">
        <lane id=":4341675279_w0_0" index="0" allow="pedestrian" speed="1.00" length="8.16" width="3.00" shape="674.03,210.28 677.03,210.29 675.48,202.29 672.48,202.27 672.58,204.00 672.87,205.25 673.25,206.27 673.63,207.30 673.92,208.55"/>
    </edge>
    <edge id=":4341675280_0" function="internal">
        <lane id=":4341675280_0_0" index="0" disallow="tram rail_urban rail rail_electric pedestrian ship" speed="13.89" length="8.60" shape="958.81,226.87 961.28,226.38 962.82,225.29 964.36,224.19 966.83,223.71"/>
        <lane id=":4341675280_0_1" index="1" disallow="tram rail_urban rail rail_electric pedestrian ship" speed="13.89" length="8.60" shape="958.80,230.07 961.26,229.58 962.80,228.49 964.35,227.39 966.81,226.91"/>
        <lane id=":4341675280_0_2" index="2" disallow="tram rail_urban rail rail_electric pedestrian ship" speed="13.89" length="8.60" shape="958.80,230.07 966.80,230.11"/>
        <lane id=":4341675280_0_3" index="3" disallow="tram rail_urban rail rail_electric pedestrian ship" speed="13.89" length="8.60" shape="958.80,230.07 961.26,230.58 962.79,231.69 964.32,232.79 966.78,233.31"/>
    </edge>
    <edge id=":4341675280_w0" function="walkingarea">
        <lane id=":4341675280_w0_0" index="0" allow="pedestrian" speed="1.00" length="8.62" width="3.00" shape="966.84,222.11 966.85,219.11 958.84,222.27 958.82,225.27 960.61,225.04 961.86,224.45 962.83,223.69 963.80,222.92 965.05,222.33"/>
    </edge>
    <edge id=":4341675282_0" function="internal">
        <lane id=":4341675282_0_0" index="0" disallow="tram rail_urban rail rail_electric pedestrian ship" speed="13.89" length="8.60" shape="920.34,265.13 919.86,262.66 918.77,261.12 917.68,259.57 917.19,257.11"/>
        <lane id=":4341675282_0_1" index="1" disallow="tram rail_urban rail rail_electric pedestrian ship" speed="13.89" length="8.60" shape="923.54,265.15 923.06,262.68 921.97,261.14 920.88,259.59 920.39,257.13"/>
        <lane id=":4341675282_0_2" index="2" disallow="tram rail_urban rail rail_electric pedestrian ship" speed="13.89" length="8.60" shape="923.54,265.15 923.59,257.15"/>
        <lane id=":4341675282_0_3" index="3" disallow="tram rail_urban rail rail_electric pedestrian ship" speed="13.89" length="8.60" shape="923.54,265.15 924.06,262.69 925.17,261.16 926.28,259.63 926.79,257.17"/>
    </edge>
    <edge id=":4341675282_w0" function="walkingarea">
        <lane id=":4341675282_w0_0" index="0" allow="pedestrian" speed="1.00" length="8.62" width="3.00" shape="915.59,257.10 912.59,257.08 915.74,265.10 918.74,265.12 918.52,263.33 917.93,262.08 917.17,261.11 916.40,260.14 915.82,258.89"/>
    </edge>
    <edge id=":4341675284_0" function="internal">
        <lane id=":4341675284_0_0" index="0" disallow="tram rail_urban rail rail_electric pedestrian ship" speed="13.89" length="8.21" shape="669.63,297.99 669.84,300.39 670.37,302.00 670.89,303.61 671.10,306.01"/>
        <lane id=":4341675284_0_1" index="1" disallow="tram rail_urban rail rail_electric pedestrian ship" speed="13.89" length="8.21" shape="669.63,297.99 669.34,300.38 668.77,301.98 668.19,303.57 667.90,305.96"/>
        <lane id=":4341675284_0_2" index="2" disallow="tram rail_urban rail rail_electric pedestrian ship" speed="13.89" length="8.21" shape="666.43,297.94 666.14,300.33 665.57,301.93 664.99,303.52 664.71,305.91"/>
        <lane id=":4341675284_0_3" index="3" disallow="tram rail_urban rail rail_electric pedestrian ship" speed="13.89" length="8.21" shape="663.23,297.89 662.94,300.28 662.37,301.87 661.79,303.47 661.51,305.86"/>
    </edge>
    <edge id=":4341675284_w0" function="walkingarea">
        <lane id=":4341675284_w0_0" index="0" allow="pedestrian" speed="1.00" length="8.16" width="3.00" shape="672.70,306.04 675.70,306.08 674.23,298.06 671.23,298.01 671.32,299.74 671.60,301.00 671.97,302.03 672.34,303.05 672.61,304.31"/>
    </edge>
    <edge id=":4341675285_0" function="internal">
        <lane id=":4341675285_0_0" index="0" disallow="tram rail_urban rail rail_electric pedestrian ship" speed="13.89" length="8.61" shape="644.58,346.45 642.12,346.94 640.58,348.03 639.04,349.13 636.57,349.62"/>
        <lane id=":4341675285_0_1" index="1" disallow="tram rail_urban rail rail_electric pedestrian ship" speed="13.89" length="8.61" shape="644.60,343.25 642.13,343.74 640.59,344.83 639.05,345.93 636.58,346.42"/>
        <lane id=":4341675285_0_2" index="2" disallow="tram rail_urban rail rail_electric pedestrian ship" speed="13.89" length="8.61" shape="644.60,343.25 636.59,343.22"/>
        <lane id=":4341675285_0_3" index="3" disallow="tram rail_urban rail rail_electric pedestrian ship" speed="13.89" length="8.61" shape="644.60,343.25 642.13,342.74 640.60,341.63 639.06,340.53 636.60,340.02"/>
    </edge>
    <edge id=":4341675285_w0" function="walkingarea">
        <lane id=":4341675285_w0_0" index="0" allow="pedestrian" speed="1.00" length="8.61" width="3.00" shape="636.57,351.22 636.56,354.22 644.57,351.05 644.58,348.05 642.79,348.28 641.54,348.87 640.57,349.63 639.60,350.40 638.36,350.99"/>
    </edge>
    <edge id=":4341675286_0" function="internal">
        <lane id=":4341675286_0_0" index="0" disallow="tram rail_urban rail rail_electric pedestrian ship" speed="13.89" length="8.78" shape="712.24,346.67 709.73,347.15 708.15,348.23 706.57,349.33 704.06,349.82"/>
        <lane id=":4341675286_0_1" index="1" disallow="tram rail_urban rail rail_electric pedestrian ship" speed="13.89" length="8.78" shape="712.27,343.47 709.76,343.95 708.17,345.03 706.59,346.13 704.07,346.62"/>
        <lane id=":4341675286_0_2" index="2" disallow="tram rail_urban rail rail_electric pedestrian ship" speed="13.89" length="8.78" shape="712.27,343.47 704.08,343.42"/>
        <lane id=":4341675286_0_3" index="3" disallow="tram rail_urban rail rail_electric pedestrian ship" speed="13.89" length="8.78" shape="712.27,343.47 709.76,342.95 708.18,341.83 706.60,340.73 704.09,340.22"/>
    </edge>
    <edge id=":4341675286_w0" function="walkingarea">
        <lane id=":4341675286_w0_0" index="0" allow="pedestrian" speed="1.00" length="8.74" width="3.00" shape="704.06,351.42 704.05,354.42 712.19,351.27 712.22,348.27 710.40,348.49 709.14,349.07 708.14,349.83 707.15,350.60 705.88,351.19"/>
    </edge>
    <edge id=":4341675287_0" function="internal">
        <lane id=":4341675287_0_0" index="0" disallow="tram rail_urban rail rail_electric pedestrian ship" speed="13.89" length="8.60" shape="919.64,375.58 919.15,373.11 918.06,371.56 916.97,370.02 916.49,367.55"/>
        <lane id=":4341675287_0_1" index="1" disallow="tram rail_urban rail rail_electric pedestrian ship" speed="13.89" length="8.60" shape="922.84,375.60 922.35,373.13 921.26,371.59 920.17,370.04 919.69,367.58"/>
        <lane id=":4341675287_0_2" index="2" disallow="tram rail_urban rail rail_electric pedestrian ship" speed="13.89" length="8.60" shape="922.84,375.60 922.89,367.60"/>
        <lane id=":4341675287_0_3" index="3" disallow="tram rail_urban rail rail_electric pedestrian ship" speed="13.89" length="8.60" shape="922.84,375.60 923.35,373.14 924.46,371.61 925.57,370.07 926.09,367.62"/>
    </edge>
    <edge id=":4341675287_w0" function="walkingarea">
        <lane id=":4341675287_w0_0" index="0" allow="pedestrian" speed="1.00" length="8.62" width="3.00" shape="914.89,367.54 911.89,367.52 915.04,375.55 918.04,375.56 917.81,373.77 917.23,372.53 916.46,371.55 915.70,370.58 915.12,369.34"/>
    </edge>
    <edge id=":49047358_0" function="internal">
        <lane id=":49047358_0_0" index="0" disallow="tram rail_urban rail rail_electric pedestrian ship" speed="6.76" length="5.59" shape="674.42,460.39 671.75,460.76 669.84,461.90 669.49,462.48"/>
    </edge>
    <edge id=":49047358_1" function="internal">
        <lane id=":49047358_1_0" index="0" disallow="tram rail_urban rail rail_electric pedestrian ship" speed="13.89" length="15.78" shape="674.42,460.39 658.64,460.18"/>
    </edge>
    <edge id=":49047358_2" function="internal">
        <lane id=":49047358_2_0" index="0" disallow="tram rail_urban rail rail_electric pedestrian ship" speed="3.65" length="2.34" shape="674.42,460.39 673.22,459.59 672.83,458.79"/>
    </edge>
    <edge id=":49047358_11" function="internal">
        <lane id=":49047358_11_0" index="0" disallow="tram rail_urban rail rail_electric pedestrian ship" speed="6.76" length="4.25" shape="669.49,462.48 668.69,463.80 668.30,466.47"/>
    </edge>
    <edge id=":49047358_12" function="internal">
        <lane id=":49047358_12_0" index="0" disallow="tram rail_urban rail rail_electric pedestrian ship" speed="3.65" length="2.34" shape="672.83,458.79 673.23,457.99 674.43,457.19"/>
    </edge>
    <edge id=":49047358_3" function="internal">
        <lane id=":49047358_3_0" index="0" disallow="tram rail_urban rail rail_electric pedestrian ship" speed="6.79" length="5.67" shape="668.36,450.96 668.73,453.68 669.86,455.62 670.44,455.98"/>
    </edge>
    <edge id=":49047358_4" function="internal">
        <lane id=":49047358_4_0" index="0" disallow="tram rail_urban rail rail_electric pedestrian ship" speed="13.89" length="15.52" shape="668.36,450.96 668.30,466.47"/>
        <lane id=":49047358_4_1" index="1" disallow="tram rail_urban rail rail_electric pedestrian ship" speed="13.89" length="15.52" shape="665.16,450.95 665.10,466.46"/>
        <lane id=":49047358_4_2" index="2" disallow="tram rail_urban rail rail_electric pedestrian ship" speed="13.89" length="15.52" shape="661.96,450.93 661.90,466.46"/>
    </edge>
    <edge id=":49047358_7" function="internal">
        <lane id=":49047358_7_0" index="0" disallow="tram rail_urban rail rail_electric pedestrian ship" speed="6.94" length="10.60" shape="661.96,450.93 661.73,455.01 661.11,457.91 660.07,459.63 658.64,460.18"/>
    </edge>
    <edge id=":49047358_13" function="internal">