<?xml version="1.0" encoding="UTF-8"?>

<!-- generated on lun 12 ago 2019 15:32:45 -04 by Eclipse SUMO netedit Version 1.2.0
<configuration xmlns:xsi="http://www.w3.org/2001/XMLSchema-instance" xsi:noNamespaceSchemaLocation="http://sumo.dlr.de/xsd/netconvertConfiguration.xsd">

    <input>
        <sumo-net-file value="osm.net.xml"/>
    </input>

    <output>
        <output-file value="osm.net.xml"/>
        <output.street-names value="true"/>
    </output>

    <processing>
        <geometry.max-grade.fix value="false"/>
        <offset.disable-normalization value="true"/>
        <lefthand value="false"/>
    </processing>

    <junctions>
        <no-internal-links value="false"/>
        <no-turnarounds value="true"/>
        <junctions.corner-detail value="5"/>
        <junctions.limit-turn-speed value="5.5"/>
        <rectangular-lane-cut value="false"/>
    </junctions>

    <pedestrian>
        <walkingareas value="true"/>
    </pedestrian>

    <netedit>
        <additional-files value="/home/pandora/Desktop/Jose_Proyecto/ProyectoTesis/Simulación/SUMO/San%20Diego/SUMO_SanDiego_Pilot1/MicroTraffic/e2corrected.add.xml"/>
    </netedit>

</configuration>
-->

<additional xmlns:xsi="http://www.w3.org/2001/XMLSchema-instance" xsi:noNamespaceSchemaLocation="http://sumo.dlr.de/xsd/additional_file.xsd">
    <e2Detector id="intersection/0002/e2det/ew/01" length="20.00" lane="-5962129#0_1" pos="10.63" freq="1.00" file="e2output.xml" friendlyPos="1"/>
    <e2Detector id="intersection/0002/e2det/sn/01" length="20.00" lane="436291016#3_1" pos="3.33" freq="1.00" file="e2output.xml" friendlyPos="1"/>
    <e2Detector id="intersection/0002/e2det/sn/02" length="20.00" lane="436291016#3_2" pos="3.33" freq="1.00" file="e2output.xml" friendlyPos="1"/>
    <e2Detector id="intersection/0002/e2det/sn/03" length="20.00" lane="436291016#3_3" pos="3.33" freq="1.00" file="e2output.xml" friendlyPos="1"/>
    <e2Detector id="intersection/0002/e2det/we/01" length="20.00" lane="-5955850#0_1" pos="53.46" freq="1.00" file="e2output.xml" friendlyPos="1"/>
    <e2Detector id="intersection/0003/e2det/ew/01" length="20.00" lane="-593766960_1" pos="17.86" freq="1.00" file="e2output.xml" friendlyPos="1"/>
    <e2Detector id="intersection/0003/e2det/ns/01" length="20.00" lane="436291021#0_1" pos="132.98" freq="1.00" file="e2output.xml" friendlyPos="1"/>
    <e2Detector id="intersection/0003/e2det/ns/02" length="20.00" lane="436291021#0_2" pos="132.98" freq="1.00" file="e2output.xml" friendlyPos="1"/>
    <e2Detector id="intersection/0003/e2det/we/01" length="7.39" lane="593766963_1" pos="0.00" freq="1.00" file="e2output.xml" friendlyPos="1"/>
    <e2Detector id="intersection/0004/e2det/ew/01" length="20.00" lane="436291064#1_1" pos="15.84" freq="1.00" file="e2output.xml" friendlyPos="1"/>
    <e2Detector id="intersection/0004/e2det/ew/02" length="20.00" lane="436291064#1_2" pos="15.84" freq="1.00" file="e2output.xml" friendlyPos="1"/>
    <e2Detector id="intersection/0004/e2det/ew/03" length="20.00" lane="436291064#1_3" pos="15.92" freq="900.00" file="e2output.xml"/>
    <e2Detector id="intersection/0004/e2det/ew/04" length="20.00" lane="436291064#1_4" pos="15.84" freq="1.00" file="e2output.xml" friendlyPos="1"/>
    <e2Detector id="intersection/0004/e2det/ns/01" length="20.00" lane="6024091#5_1" pos="12.33" freq="1.00" file="e2output.xml" friendlyPos="1"/>
    <e2Detector id="intersection/0004/e2det/ns/02" length="20.00" lane="6024091#5_2" pos="12.33" freq="1.00" file="e2output.xml" friendlyPos="1"/>
    <e2Detector id="intersection/0005/e2det/ew/01" length="20.00" lane="436291031_1" pos="7.30" freq="1.00" file="e2output.xml" friendlyPos="1"/>
    <e2Detector id="intersection/0005/e2det/ew/02" length="20.00" lane="436291031_2" pos="7.30" freq="1.00" file="e2output.xml" friendlyPos="1"/>
    <e2Detector id="intersection/0005/e2det/ew/03" length="20.00" lane="436291031_3" pos="7.38" freq="900.00" file="e2output.xml"/>
    <e2Detector id="intersection/0005/e2det/ew/04" length="20.00" lane="436291031_4" pos="7.39" freq="900.00" file="e2output.xml"/>
    <e2Detector id="intersection/0005/e2det/sn/01" length="20.00" lane="436291010_1" pos="10.87" freq="1.00" file="e2output.xml" friendlyPos="1"/>
    <e2Detector id="intersection/0005/e2det/sn/02" length="20.00" lane="436291010_2" pos="10.87" freq="1.00" file="e2output.xml" friendlyPos="1"/>
    <e2Detector id="intersection/0005/e2det/sn/03" length="20.00" lane="436291010_3" pos="10.87" freq="1.00" file="e2output.xml" friendlyPos="1"/>
    <e2Detector id="intersection/0005/e2det/sn/04" length="20.00" lane="436291010_4" pos="10.87" freq="1.00" file="e2output.xml" friendlyPos="1"/>
    <e2Detector id="intersection/0006/e2det/ew/01" length="20.00" lane="641705063#3_1" pos="2.77" freq="1.00" file="e2output.xml" friendlyPos="1"/>
    <e2Detector id="intersection/0006/e2det/ew/02" length="20.00" lane="641705063#3_2" pos="2.77" freq="1.00" file="e2output.xml" friendlyPos="1"/>
    <e2Detector id="intersection/0006/e2det/ns/01" length="20.00" lane="419814433#4_1" pos="15.35" freq="1.00" file="e2output.xml" friendlyPos="1"/>
    <e2Detector id="intersection/0006/e2det/sn/01" length="20.00" lane="-641705065_1" pos="88.10" freq="1.00" file="e2output.xml" friendlyPos="1"/>
    <e2Detector id="intersection/0007/e2det/ew/01" length="20.00" lane="641705063#1_1" pos="20.91" freq="1.00" file="e2output.xml" friendlyPos="1"/>
    <e2Detector id="intersection/0007/e2det/ew/02" length="20.00" lane="641705063#1_2" pos="20.91" freq="1.00" file="e2output.xml" friendlyPos="1"/>
    <e2Detector id="intersection/0007/e2det/sn/01" length="20.00" lane="36054466#4_1" pos="9.38" freq="1.00" file="e2output.xml" friendlyPos="1"/>
    <e2Detector id="intersection/0008/e2det/ew/01" length="20.00" lane="89922370#5_1" pos="14.71" freq="1.00" file="e2output.xml" friendlyPos="1"/>
    <e2Detector id="intersection/0008/e2det/ew/02" length="20.00" lane="89922370#5_2" pos="14.71" freq="1.00" file="e2output.xml" friendlyPos="1"/>
    <e2Detector id="intersection/0008/e2det/sn/01" length="14.00" lane="436291018_1" pos="0.00" freq="1.00" file="e2output.xml" friendlyPos="1"/>
    <e2Detector id="intersection/0008/e2det/sn/02" length="14.00" lane="436291018_2" pos="0.00" freq="1.00" file="e2output.xml" friendlyPos="1"/>
    <e2Detector id="intersection/0008/e2det/sn/03" length="14.00" lane="436291018_3" pos="0.04" freq="900.00" file="e2output.xml"/>
    <e2Detector id="intersection/0008/e2det/sn/04" length="14.00" lane="436291018_4" pos="0.09" freq="900.00" file="e2output.xml"/>
    <e2Detector id="intersection/0009/e2det/sn/01" length="8.94" lane="436291013_1" pos="0.00" freq="1.00" file="e2output.xml" friendlyPos="1"/>
    <e2Detector id="intersection/0009/e2det/sn/02" length="8.94" lane="436291013_2" pos="0.00" freq="1.00" file="e2output.xml" friendlyPos="1"/>
    <e2Detector id="intersection/0009/e2det/sn/03" length="8.94" lane="436291013_3" pos="0.00" freq="1.00" file="e2output.xml" friendlyPos="1"/>
    <e2Detector id="intersection/0009/e2det/sn/04" length="9.00" lane="436291013_4" pos="0.02" freq="900.00" file="e2output.xml"/>
    <e2Detector id="intersection/0009/e2det/we/01" length="20.00" lane="642337373_1" pos="51.52" freq="1.00" file="e2output.xml" friendlyPos="1"/>
    <e2Detector id="intersection/0009/e2det/we/02" length="20.00" lane="642337373_2" pos="51.52" freq="1.00" file="e2output.xml" friendlyPos="1"/>
    <e2Detector id="intersection/0010/e2det/ns/01" length="20.00" lane="641705065_1" pos="88.10" freq="1.00" file="e2output.xml" friendlyPos="1"/>
    <e2Detector id="intersection/0010/e2det/sn/01" length="20.00" lane="184708334_0" pos="19.04" freq="1.00" file="e2output.xml" friendlyPos="1"/>
    <e2Detector id="intersection/0010/e2det/sn/02" length="20.00" lane="-184708333_0" pos="12.35" freq="1.00" file="e2output.xml" friendlyPos="1"/>
    <e2Detector id="intersection/0010/e2det/we/01" length="20.00" lane="184708338_0" pos="31.32" freq="1.00" file="e2output.xml" friendlyPos="1"/>
    <e2Detector id="intersection/0010/e2det/we/02" length="20.00" lane="234953562_1" pos="24.17" freq="1.00" file="e2output.xml" friendlyPos="1"/>
    <e2Detector id="intersection/0010/e2det/we/03" length="20.00" lane="234953562_2" pos="24.17" freq="1.00" file="e2output.xml" friendlyPos="1"/>
    <e2Detector id="intersection/0011/e2det/sn/01" length="20.00" lane="89927838#3_1" pos="18.10" freq="1.00" file="e2output.xml" friendlyPos="1"/>
    <e2Detector id="intersection/0011/e2det/we/01" length="20.00" lane="634644489_1" pos="49.89" freq="1.00" file="e2output.xml" friendlyPos="1"/>
    <e2Detector id="intersection/0011/e2det/we/02" length="20.00" lane="634644489_2" pos="49.89" freq="1.00" file="e2output.xml" friendlyPos="1"/>
    <e2Detector id="intersection/0012/e2det/ns/01" length="20.00" lane="436291019_1" pos="4.05" freq="1.00" file="e2output.xml" friendlyPos="1"/>
    <e2Detector id="intersection/0012/e2det/ns/02" length="20.00" lane="436291019_2" pos="4.05" freq="1.00" file="e2output.xml" friendlyPos="1"/>
    <e2Detector id="intersection/0012/e2det/ns/03" length="20.00" lane="436291019_3" pos="4.13" freq="900.00" file="e2output.xml"/>
    <e2Detector id="intersection/0012/e2det/ns/04" length="20.00" lane="436291019_4" pos="4.05" freq="1.00" file="e2output.xml" friendlyPos="1"/>
    <e2Detector id="intersection/0012/e2det/we/01" length="20.00" lane="278328405#0_1" pos="45.95" freq="1.00" file="e2output.xml" friendlyPos="1"/>
    <e2Detector id="intersection/0012/e2det/we/02" length="20.00" lane="278328405#0_2" pos="45.95" freq="1.00" file="e2output.xml" friendlyPos="1"/>
    <e2Detector id="intersection/0013/e2det/sn/01" length="20.00" lane="573865733#0_1" pos="88.99" freq="1.00" file="e2output.xml" friendlyPos="1"/>
    <e2Detector id="intersection/0013/e2det/sn/02" length="20.00" lane="573865733#0_2" pos="88.99" freq="1.00" file="e2output.xml" friendlyPos="1"/>
    <e2Detector id="intersection/0013/e2det/sn/03" length="20.00" lane="573865733#0_3" pos="88.99" freq="1.00" file="e2output.xml" friendlyPos="1"/>
</additional>
