<?xml version="1.0" encoding="UTF-8"?>

<!-- generated on Wed Aug  7 15:13:57 2019 by Eclipse SUMO duarouter Version 1.2.0
<configuration xmlns:xsi="http://www.w3.org/2001/XMLSchema-instance" xsi:noNamespaceSchemaLocation="http://sumo.dlr.de/xsd/duarouterConfiguration.xsd">

    <input>
        <net-file value="osm.net.xml"/>
        <route-files value="osm.bicycle.trips.xml"/>
    </input>

    <output>
        <output-file value="osm.bicycle.trips.xml.tmp"/>
        <write-trips value="true"/>
    </output>

    <time>
        <begin value="0"/>
        <end value="3600.0"/>
    </time>

    <report>
        <no-warnings value="true"/>
        <ignore-errors value="true"/>
        <no-step-log value="true"/>
    </report>

</configuration>
-->

<routes xmlns:xsi="http://www.w3.org/2001/XMLSchema-instance" xsi:noNamespaceSchemaLocation="http://sumo.dlr.de/xsd/routes_file.xsd">
    <vType id="bike_bicycle" vClass="bicycle"/>
    <trip id="bike0" type="bike_bicycle" depart="0.00" departLane="best" from="578934713#0" to="-184711460"/>
    <trip id="bike1" type="bike_bicycle" depart="5.39" departLane="best" departSpeed="max" from="-593766962#1" to="-578942372#1"/>
    <trip id="bike2" type="bike_bicycle" depart="10.77" departLane="best" from="578942360#1" to="578942331"/>
    <trip id="bike5" type="bike_bicycle" depart="26.93" departLane="best" departSpeed="max" from="-578942364" to="436291031"/>
    <trip id="bike6" type="bike_bicycle" depart="32.32" departLane="best" departSpeed="max" from="-184708337#3" to="-578942367#2"/>
    <trip id="bike7" type="bike_bicycle" depart="37.70" departLane="best" departSpeed="max" from="578934714" to="578934689"/>
    <trip id="bike8" type="bike_bicycle" depart="43.09" departLane="best" departSpeed="max" from="-578942364" to="578934700#1"/>
    <trip id="bike9" type="bike_bicycle" depart="48.48" departLane="best" from="578942372#0" to="-184708337#1"/>
    <trip id="bike10" type="bike_bicycle" depart="53.86" departLane="best" from="578942371#2" to="578942355"/>
    <trip id="bike11" type="bike_bicycle" depart="59.25" departLane="best" from="-89927838#3" to="-578934718#1"/>
    <trip id="bike12" type="bike_bicycle" depart="64.63" departLane="best" from="642337373" to="184708337#3"/>
    <trip id="bike14" type="bike_bicycle" depart="75.41" departLane="best" from="593766964" to="578934709#1"/>
    <trip id="bike15" type="bike_bicycle" depart="80.79" departLane="best" from="578942371#2" to="578942361#0"/>
    <trip id="bike16" type="bike_bicycle" depart="86.18" departLane="best" from="436291031" to="642361032"/>
    <trip id="bike17" type="bike_bicycle" depart="91.57" departLane="best" from="234953562" to="578934690"/>
    <trip id="bike18" type="bike_bicycle" depart="96.95" departLane="best" departSpeed="max" from="578942375" to="578934713#1"/>
    <trip id="bike19" type="bike_bicycle" depart="102.34" departLane="best" from="5955850#1" to="578934699"/>
    <trip id="bike20" type="bike_bicycle" depart="107.72" departLane="best" from="578934724#2" to="-419814433#1"/>
    <trip id="bike21" type="bike_bicycle" depart="113.11" departLane="best" from="-578942367#0" to="-641705065"/>
    <trip id="bike23" type="bike_bicycle" depart="123.88" departLane="best" departSpeed="max" from="-578934699" to="-5962129#3"/>
    <trip id="bike24" type="bike_bicycle" depart="129.27" departLane="best" from="578934712" to="36054466#10"/>
    <trip id="bike25" type="bike_bicycle" depart="134.65" departLane="best" departSpeed="max" from="184711452" to="-578942371#1"/>
    <trip id="bike26" type="bike_bicycle" depart="140.04" departLane="best" from="-578942372#2" to="641705064#1"/>
    <trip id="bike27" type="bike_bicycle" depart="145.43" departLane="best" departSpeed="max" from="578934714" to="578934712"/>
    <trip id="bike28" type="bike_bicycle" depart="150.81" departLane="best" departSpeed="max" from="-578942331" to="578942360#1"/>
    <trip id="bike29" type="bike_bicycle" depart="156.20" departLane="best" from="-578934726" to="36054466#4"/>
    <trip id="bike30" type="bike_bicycle" depart="161.59" departLane="best" departSpeed="max" from="89927838#0" to="578934718#1"/>
    <trip id="bike32" type="bike_bicycle" depart="172.36" departLane="best" from="593766963" to="578942368#0"/>
    <trip id="bike34" type="bike_bicycle" depart="183.13" departLane="best" from="-5962129#1" to="-5962129#1"/>
    <trip id="bike35" type="bike_bicycle" depart="188.52" departLane="best" departSpeed="max" from="-578942357" to="641705146#0"/>
    <trip id="bike36" type="bike_bicycle" depart="193.90" departLane="best" from="5962129#3" to="184708333"/>
    <trip id="bike37" type="bike_bicycle" depart="199.29" departLane="best" departSpeed="max" from="578934715" to="36054466#8"/>
    <trip id="bike38" type="bike_bicycle" depart="204.68" departLane="best" from="634644489" to="436291016#5"/>
    <trip id="bike39" type="bike_bicycle" depart="210.06" departLane="best" from="-578942372#2" to="-593766964"/>
    <trip id="bike42" type="bike_bicycle" depart="226.22" departLane="best" from="36054466#2" to="-578942372#0"/>
    <trip id="bike43" type="bike_bicycle" depart="231.61" departLane="best" from="89927838#3" to="436291062"/>
    <trip id="bike45" type="bike_bicycle" depart="242.38" departLane="best" from="-578934700#0" to="578934717#1"/>
    <trip id="bike48" type="bike_bicycle" depart="258.54" departLane="best" from="89927838#3" to="578605861#1"/>
    <trip id="bike49" type="bike_bicycle" depart="263.92" departLane="best" from="642337374#1" to="5955850#2"/>
    <trip id="bike50" type="bike_bicycle" depart="269.31" departLane="best" from="-184708337#0" to="578942358"/>
    <trip id="bike51" type="bike_bicycle" depart="274.70" departLane="best" from="578934718#2" to="578605862#2"/>
    <trip id="bike52" type="bike_bicycle" depart="280.08" departLane="best" from="-578942372#2" to="578934718#1"/>
    <trip id="bike53" type="bike_bicycle" depart="285.47" departLane="best" from="-578934700#1" to="436291016#10"/>
    <trip id="bike54" type="bike_bicycle" depart="290.85" departLane="best" from="436291010" to="641705146#2"/>
    <trip id="bike55" type="bike_bicycle" depart="296.24" departLane="best" from="5962129#3" to="-5962129#0"/>
    <trip id="bike57" type="bike_bicycle" depart="307.01" departLane="best" from="634644489" to="5962129#0"/>
    <trip id="bike58" type="bike_bicycle" depart="312.40" departLane="best" from="-5955850#1" to="578934718#0"/>
    <trip id="bike59" type="bike_bicycle" depart="317.79" departLane="best" from="578934700#1" to="-578934718#1"/>
    <trip id="bike60" type="bike_bicycle" depart="323.17" departLane="best" from="578942365" to="578605862#2"/>
    <trip id="bike61" type="bike_bicycle" depart="328.56" departLane="best" from="578942368#0" to="578605861#1"/>
    <trip id="bike62" type="bike_bicycle" depart="333.94" departLane="best" departSpeed="max" from="-184708333" to="184708337#1"/>
    <trip id="bike63" type="bike_bicycle" depart="339.33" departLane="best" from="-184708337#2" to="641705063#3"/>
    <trip id="bike64" type="bike_bicycle" depart="344.72" departLane="best" from="5962129#4" to="593766961"/>
    <trip id="bike65" type="bike_bicycle" depart="350.10" departLane="best" departSpeed="max" from="-5955850#2" to="-578605861#0"/>
    <trip id="bike66" type="bike_bicycle" depart="355.49" departLane="best" from="5962129#3" to="641705146#1"/>
    <trip id="bike69" type="bike_bicycle" depart="371.65" departLane="best" from="578942367#0" to="-578934714"/>
    <trip id="bike70" type="bike_bicycle" depart="377.03" departLane="best" from="436291016#2" to="578934690"/>
    <trip id="bike71" type="bike_bicycle" depart="382.42" departLane="best" from="-578942372#2" to="5962129#0"/>
    <trip id="bike72" type="bike_bicycle" depart="387.81" departLane="best" from="36054466#8" to="-578942371#1"/>
    <trip id="bike73" type="bike_bicycle" depart="393.19" departLane="best" from="436291062" to="578942361#0"/>
    <trip id="bike74" type="bike_bicycle" depart="398.58" departLane="best" departSpeed="max" from="-578942356" to="184708333"/>
    <trip id="bike75" type="bike_bicycle" depart="403.96" departLane="best" departSpeed="max" from="89927838#0" to="578934718#3"/>
    <trip id="bike76" type="bike_bicycle" depart="409.35" departLane="best" departSpeed="max" from="419814433#0" to="436291064#1"/>
    <trip id="bike77" type="bike_bicycle" depart="414.74" departLane="best" departSpeed="max" from="-578934709#1" to="-578942372#1"/>
    <trip id="bike78" type="bike_bicycle" depart="420.12" departLane="best" from="-89927838#3" to="578934700#1"/>
    <trip id="bike79" type="bike_bicycle" depart="425.51" departLane="best" from="-578942367#0" to="-578942372#0"/>
    <trip id="bike81" type="bike_bicycle" depart="436.28" departLane="best" from="-578942367#0" to="6024091#5"/>
    <trip id="bike82" type="bike_bicycle" depart="441.67" departLane="best" from="5955850#1" to="-578605862#0"/>
    <trip id="bike83" type="bike_bicycle" depart="447.05" departLane="best" from="-578942367#2" to="578934724#2"/>
    <trip id="bike84" type="bike_bicycle" depart="452.44" departLane="best" from="-578942358" to="-578934714"/>
    <trip id="bike85" type="bike_bicycle" depart="457.83" departLane="best" from="641705064#1" to="578934698"/>
    <trip id="bike86" type="bike_bicycle" depart="463.21" departLane="best" from="436291016#2" to="578942369#0"/>
    <trip id="bike87" type="bike_bicycle" depart="468.60" departLane="best" from="578942371#2" to="-578942367#0"/>
    <trip id="bike89" type="bike_bicycle" depart="479.37" departLane="best" from="36054466#8" to="436291016#7"/>
    <trip id="bike90" type="bike_bicycle" depart="484.76" departLane="best" from="578942358" to="578934726"/>
    <trip id="bike91" type="bike_bicycle" depart="490.14" departLane="best" from="89922370#5" to="-578934700#0"/>
    <trip id="bike92" type="bike_bicycle" depart="495.53" departLane="best" from="36054466#3" to="184708337#3"/>
    <trip id="bike93" type="bike_bicycle" depart="500.92" departLane="best" from="5955850#1" to="-593766964"/>
    <trip id="bike94" type="bike_bicycle" depart="506.30" departLane="best" departSpeed="max" from="-578942344" to="436291016#3"/>
    <trip id="bike95" type="bike_bicycle" depart="511.69" departLane="best" from="36054466#7" to="-5962129#3"/>
    <trip id="bike96" type="bike_bicycle" depart="517.07" departLane="best" from="-578942371#1" to="641705063#2"/>
    <trip id="bike97" type="bike_bicycle" depart="522.46" departLane="best" from="419814433#2" to="5955850#2"/>
    <trip id="bike98" type="bike_bicycle" depart="527.85" departLane="best" departSpeed="max" from="573865733#0" to="-419814433#2"/>
    <trip id="bike99" type="bike_bicycle" depart="533.23" departLane="best" from="89927838#3" to="593766962#0"/>
    <trip id="bike100" type="bike_bicycle" depart="538.62" departLane="best" from="642337374#1" to="641705063#3"/>
    <trip id="bike101" type="bike_bicycle" depart="544.01" departLane="best" from="593766964" to="-578934719"/>
    <trip id="bike103" type="bike_bicycle" depart="554.78" departLane="best" from="36054466#2" to="-578605861#0"/>
    <trip id="bike104" type="bike_bicycle" depart="560.16" departLane="best" from="234953562" to="642751754#1"/>
    <trip id="bike105" type="bike_bicycle" depart="565.55" departLane="best" from="-578942372#2" to="578942369#0"/>
    <trip id="bike108" type="bike_bicycle" depart="581.71" departLane="best" departSpeed="max" from="573865733#0" to="578942358"/>
    <trip id="bike109" type="bike_bicycle" depart="587.10" departLane="best" from="-578934719" to="-89927838#0"/>
    <trip id="bike110" type="bike_bicycle" depart="592.48" departLane="best" from="642337374#1" to="578934699"/>
    <trip id="bike111" type="bike_bicycle" depart="597.87" departLane="best" from="436291064#0" to="578942363"/>
    <trip id="bike114" type="bike_bicycle" depart="614.03" departLane="best" from="-578934719" to="642337372"/>
    <trip id="bike116" type="bike_bicycle" depart="624.80" departLane="best" departSpeed="max" from="578934692" to="578934726"/>
    <trip id="bike117" type="bike_bicycle" depart="630.19" departLane="best" from="-578942367#1" to="-578934711"/>
    <trip id="bike118" type="bike_bicycle" depart="635.57" departLane="best" departSpeed="max" from="6024091#0" to="-593766964"/>
    <trip id="bike119" type="bike_bicycle" depart="640.96" departLane="best" departSpeed="max" from="578934692" to="578934716"/>
    <trip id="bike120" type="bike_bicycle" depart="646.34" departLane="best" from="36054466#7" to="578934700#0"/>
    <trip id="bike121" type="bike_bicycle" depart="651.73" departLane="best" from="436291020#2" to="641705064#1"/>
    <trip id="bike122" type="bike_bicycle" depart="657.12" departLane="best" departSpeed="max" from="-578942357" to="578942357"/>
    <trip id="bike123" type="bike_bicycle" depart="662.50" departLane="best" from="-578942367#2" to="36054466#8"/>
    <trip id="bike124" type="bike_bicycle" depart="667.89" departLane="best" from="578934718#0" to="-89927838#3"/>
    <trip id="bike125" type="bike_bicycle" depart="673.27" departLane="best" from="-5962129#1" to="578942364"/>
    <trip id="bike127" type="bike_bicycle" depart="684.05" departLane="best" from="89927838#3" to="89927838#3"/>
    <trip id="bike129" type="bike_bicycle" depart="694.82" departLane="best" from="-578942372#2" to="641705064#0"/>
    <trip id="bike130" type="bike_bicycle" depart="700.21" departLane="best" from="5962129#4" to="5962129#2"/>
    <trip id="bike131" type="bike_bicycle" depart="705.59" departLane="best" departSpeed="max" from="184708338" to="-578934718#2"/>
    <trip id="bike132" type="bike_bicycle" depart="710.98" departLane="best" from="593766960" to="578942356"/>
    <trip id="bike134" type="bike_bicycle" depart="721.75" departLane="best" departSpeed="max" from="578934714" to="-184708337#1"/>
    <trip id="bike135" type="bike_bicycle" depart="727.14" departLane="best" from="578942372#2" to="-89927838#3"/>
    <trip id="bike136" type="bike_bicycle" depart="732.52" departLane="best" from="578934716" to="641705065"/>
    <trip id="bike137" type="bike_bicycle" depart="737.91" departLane="best" departSpeed="max" from="-578934717#1" to="-578934711"/>
    <trip id="bike138" type="bike_bicycle" depart="743.30" departLane="best" from="-578934700#0" to="578934690"/>
    <trip id="bike139" type="bike_bicycle" depart="748.68" departLane="best" from="-593766960" to="578934709#1"/>
    <trip id="bike140" type="bike_bicycle" depart="754.07" departLane="best" from="578942354#0" to="-578942370"/>
    <trip id="bike141" type="bike_bicycle" depart="759.45" departLane="best" from="578934712" to="-5962129#0"/>
    <trip id="bike144" type="bike_bicycle" depart="775.61" departLane="best" from="36054466#8" to="-5962129#3"/>
    <trip id="bike145" type="bike_bicycle" depart="781.00" departLane="best" departSpeed="max" from="-184708333" to="578942367#2"/>
    <trip id="bike146" type="bike_bicycle" depart="786.38" departLane="best" from="578934712" to="-5955850#1"/>
    <trip id="bike147" type="bike_bicycle" depart="791.77" departLane="best" from="578942361#0" to="578934690"/>
    <trip id="bike148" type="bike_bicycle" depart="797.16" departLane="best" from="36054466#9" to="-184708337#2"/>
    <trip id="bike150" type="bike_bicycle" depart="807.93" departLane="best" from="6024091#5" to="578934689"/>
    <trip id="bike151" type="bike_bicycle" depart="813.32" departLane="best" from="593766960" to="578934700#0"/>
    <trip id="bike152" type="bike_bicycle" depart="818.70" departLane="best" from="-578934718#2" to="-578934714"/>
    <trip id="bike153" type="bike_bicycle" depart="824.09" departLane="best" departSpeed="max" from="-5955850#2" to="6024091#3"/>
    <trip id="bike154" type="bike_bicycle" depart="829.47" departLane="best" from="578942370" to="5955850#2"/>
    <trip id="bike155" type="bike_bicycle" depart="834.86" departLane="best" from="6024091#3" to="-578942371#1"/>
    <trip id="bike156" type="bike_bicycle" depart="840.25" departLane="best" from="-578942371#1" to="-578934700#1"/>
    <trip id="bike157" type="bike_bicycle" depart="845.63" departLane="best" from="578942368#0" to="5962129#3"/>
    <trip id="bike158" type="bike_bicycle" depart="851.02" departLane="best" from="36054466#3" to="578934716"/>
    <trip id="bike159" type="bike_bicycle" depart="856.41" departLane="best" from="-578934719" to="641705063#3"/>
    <trip id="bike160" type="bike_bicycle" depart="861.79" departLane="best" from="5962129#0" to="642361032"/>
    <trip id="bike161" type="bike_bicycle" depart="867.18" departLane="best" from="578942372#0" to="5962129#3"/>
    <trip id="bike162" type="bike_bicycle" depart="872.56" departLane="best" departSpeed="max" from="-184708337#3" to="578942361#1"/>
    <trip id="bike163" type="bike_bicycle" depart="877.95" departLane="best" from="-5962129#5" to="641705064#0"/>
    <trip id="bike164" type="bike_bicycle" depart="883.34" departLane="best" from="578942371#1" to="5955850#2"/>
    <trip id="bike165" type="bike_bicycle" depart="888.72" departLane="best" from="578942372#0" to="-5962129#1"/>
    <trip id="bike166" type="bike_bicycle" depart="894.11" departLane="best" from="578942369#0" to="-578934709#0"/>
    <trip id="bike167" type="bike_bicycle" depart="899.49" departLane="best" from="5962129#2" to="5955850#1"/>
    <trip id="bike168" type="bike_bicycle" depart="904.88" departLane="best" departSpeed="max" from="-578942364" to="578942372#2"/>
    <trip id="bike169" type="bike_bicycle" depart="910.27" departLane="best" from="436291013" to="184708332"/>
    <trip id="bike170" type="bike_bicycle" depart="915.65" departLane="best" from="578942370" to="-578942372#2"/>
    <trip id="bike171" type="bike_bicycle" depart="921.04" departLane="best" departSpeed="max" from="-184708337#3" to="-578942367#1"/>
    <trip id="bike172" type="bike_bicycle" depart="926.43" departLane="best" from="-5962129#4" to="5955850#2"/>
    <trip id="bike173" type="bike_bicycle" depart="931.81" departLane="best" departSpeed="max" from="642337374#0" to="-5962129#4"/>
    <trip id="bike174" type="bike_bicycle" depart="937.20" departLane="best" from="578934713#0" to="36054466#9"/>
    <trip id="bike175" type="bike_bicycle" depart="942.58" departLane="best" departSpeed="max" from="89922370#0" to="578605861#2"/>
    <trip id="bike176" type="bike_bicycle" depart="947.97" departLane="best" from="641705065" to="-578934711"/>
    <trip id="bike177" type="bike_bicycle" depart="953.36" departLane="best" from="642337374#1" to="-578942355"/>
    <trip id="bike178" type="bike_bicycle" depart="958.74" departLane="best" departSpeed="max" from="642337374#0" to="-5962129#0"/>
    <trip id="bike179" type="bike_bicycle" depart="964.13" departLane="best" from="-578934700#0" to="436291016#10"/>
    <trip id="bike180" type="bike_bicycle" depart="969.52" departLane="best" from="578942358" to="184708333"/>
    <trip id="bike181" type="bike_bicycle" depart="974.90" departLane="best" from="578934700#1" to="436291062"/>
    <trip id="bike182" type="bike_bicycle" depart="980.29" departLane="best" from="278328405#0" to="578934699"/>
    <trip id="bike183" type="bike_bicycle" depart="985.67" departLane="best" from="-578942371#2" to="578942356"/>
    <trip id="bike184" type="bike_bicycle" depart="991.06" departLane="best" departSpeed="max" from="-184708333" to="641705063#2"/>
    <trip id="bike185" type="bike_bicycle" depart="996.45" departLane="best" from="436291062" to="578942358"/>
    <trip id="bike186" type="bike_bicycle" depart="1001.83" departLane="best" from="578942361#0" to="578934724#2"/>
    <trip id="bike187" type="bike_bicycle" depart="1007.22" departLane="best" departSpeed="max" from="184708338" to="-578605862#0"/>
    <trip id="bike188" type="bike_bicycle" depart="1012.61" departLane="best" from="578934716" to="184708337#2"/>
    <trip id="bike189" type="bike_bicycle" depart="1017.99" departLane="best" from="-5962129#1" to="593766964"/>
    <trip id="bike190" type="bike_bicycle" depart="1023.38" departLane="best" from="578942354#1" to="-89927838#3"/>
    <trip id="bike191" type="bike_bicycle" depart="1028.76" departLane="best" from="-5962129#0" to="419814433#2"/>
    <trip id="bike192" type="bike_bicycle" depart="1034.15" departLane="best" from="36054466#2" to="-89927838#0"/>
    <trip id="bike193" type="bike_bicycle" depart="1039.54" departLane="best" from="-578934717#0" to="436291011"/>
    <trip id="bike194" type="bike_bicycle" depart="1044.92" departLane="best" from="641705065" to="578942331"/>
    <trip id="bike195" type="bike_bicycle" depart="1050.31" departLane="best" from="6024091#5" to="578934713#1"/>
    <trip id="bike196" type="bike_bicycle" depart="1055.69" departLane="best" departSpeed="max" from="-5955850#2" to="578934689"/>
    <trip id="bike197" type="bike_bicycle" depart="1061.08" departLane="best" departSpeed="max" from="-184708333" to="-641705065"/>
    <trip id="bike198" type="bike_bicycle" depart="1066.47" departLane="best" from="36054466#9" to="578934699"/>
    <trip id="bike199" type="bike_bicycle" depart="1071.85" departLane="best" departSpeed="max" from="578934715" to="436291016#7"/>
    <trip id="bike200" type="bike_bicycle" depart="1077.24" departLane="best" from="419814433#1" to="-578942371#2"/>
    <trip id="bike201" type="bike_bicycle" depart="1082.63" departLane="best" from="436291016#2" to="6024091#3"/>
    <trip id="bike202" type="bike_bicycle" depart="1088.01" departLane="best" from="578942370" to="-578934723"/>
    <trip id="bike204" type="bike_bicycle" depart="1098.78" departLane="best" departSpeed="max" from="578934711" to="184708337#3"/>
    <trip id="bike205" type="bike_bicycle" depart="1104.17" departLane="best" from="578942372#2" to="578942364"/>
    <trip id="bike206" type="bike_bicycle" depart="1109.56" departLane="best" from="578934718#0" to="-578942372#1"/>
    <trip id="bike207" type="bike_bicycle" depart="1114.94" departLane="best" departSpeed="max" from="-578942356" to="-184711458"/>
    <trip id="bike208" type="bike_bicycle" depart="1120.33" departLane="best" from="-578942371#0" to="436291016#9"/>
    <trip id="bike209" type="bike_bicycle" depart="1125.72" departLane="best" from="593766965" to="-578605862#0"/>
    <trip id="bike210" type="bike_bicycle" depart="1131.10" departLane="best" from="36054466#5" to="578934717#1"/>
    <trip id="bike211" type="bike_bicycle" depart="1136.49" departLane="best" from="-578942355" to="578942354#1"/>
    <trip id="bike213" type="bike_bicycle" depart="1147.26" departLane="best" departSpeed="max" from="578934715" to="-184708337#1"/>
    <trip id="bike214" type="bike_bicycle" depart="1152.65" departLane="best" from="578942361#2" to="578942367#1"/>
    <trip id="bike216" type="bike_bicycle" depart="1163.42" departLane="best" departSpeed="max" from="-578942334" to="641705146#2"/>
    <trip id="bike217" type="bike_bicycle" depart="1168.80" departLane="best" from="436291020#1" to="-419814433#2"/>
    <trip id="bike218" type="bike_bicycle" depart="1174.19" departLane="best" from="-578942371#1" to="593766964"/>
    <trip id="bike219" type="bike_bicycle" depart="1179.58" departLane="best" from="436291011" to="578942371#1"/>
    <trip id="bike220" type="bike_bicycle" depart="1184.96" departLane="best" from="578934717#0" to="642751754#1"/>
    <trip id="bike221" type="bike_bicycle" depart="1190.35" departLane="best" departSpeed="max" from="578934692" to="641705146#1"/>
    <trip id="bike222" type="bike_bicycle" depart="1195.74" departLane="best" departSpeed="max" from="6024091#0" to="578934713#0"/>
    <trip id="bike223" type="bike_bicycle" depart="1201.12" departLane="best" from="578942354#0" to="436291031"/>
    <trip id="bike224" type="bike_bicycle" depart="1206.51" departLane="best" departSpeed="max" from="578942375" to="578934689"/>
    <trip id="bike225" type="bike_bicycle" depart="1211.89" departLane="best" from="6024091#2" to="578942362"/>
    <trip id="bike226" type="bike_bicycle" depart="1217.28" departLane="best" from="436291016#2" to="-5955850#1"/>
    <trip id="bike227" type="bike_bicycle" depart="1222.67" departLane="best" from="-578942371#0" to="578934718#0"/>
    <trip id="bike229" type="bike_bicycle" depart="1233.44" departLane="best" departSpeed="max" from="578934711" to="-5962129#3"/>
    <trip id="bike231" type="bike_bicycle" depart="1244.21" departLane="best" from="-593766960" to="184708337#0"/>
    <trip id="bike232" type="bike_bicycle" depart="1249.60" departLane="best" from="436291062" to="-578934715"/>
    <trip id="bike233" type="bike_bicycle" depart="1254.98" departLane="best" from="-578942367#0" to="578942354#1"/>
    <trip id="bike234" type="bike_bicycle" depart="1260.37" departLane="best" from="578934724#2" to="-578605861#1"/>
    <trip id="bike235" type="bike_bicycle" depart="1265.76" departLane="best" from="36054466#4" to="578934689"/>
    <trip id="bike236" type="bike_bicycle" depart="1271.14" departLane="best" from="36054466#6" to="-578942371#0"/>
    <trip id="bike237" type="bike_bicycle" depart="1276.53" departLane="best" from="36054466#7" to="6024091#5"/>
    <trip id="bike239" type="bike_bicycle" depart="1287.30" departLane="best" from="5955850#0" to="578942367#0"/>
    <trip id="bike240" type="bike_bicycle" depart="1292.69" departLane="best" from="234953562" to="-184708337#1"/>
    <trip id="bike241" type="bike_bicycle" depart="1298.07" departLane="best" from="184708337#0" to="578942364"/>
    <trip id="bike242" type="bike_bicycle" depart="1303.46" departLane="best" from="593766965" to="641705146#2"/>
    <trip id="bike243" type="bike_bicycle" depart="1308.85" departLane="best" from="36054466#7" to="578942363"/>
    <trip id="bike244" type="bike_bicycle" depart="1314.23" departLane="best" from="436291064#1" to="578934709#1"/>
    <trip id="bike245" type="bike_bicycle" depart="1319.62" departLane="best" departSpeed="max" from="-578942364" to="-578942372#0"/>
    <trip id="bike247" type="bike_bicycle" depart="1330.39" departLane="best" from="-641705065" to="578942331"/>
    <trip id="bike248" type="bike_bicycle" depart="1335.78" departLane="best" from="36054466#3" to="-578934719"/>
    <trip id="bike249" type="bike_bicycle" depart="1341.16" departLane="best" from="436291016#0" to="-578934714"/>
    <trip id="bike250" type="bike_bicycle" depart="1346.55" departLane="best" departSpeed="max" from="578934709#0" to="-184711460"/>
    <trip id="bike251" type="bike_bicycle" depart="1351.94" departLane="best" from="36054466#0" to="578934691#1"/>
    <trip id="bike252" type="bike_bicycle" depart="1357.32" departLane="best" departSpeed="max" from="-184708337#3" to="578934718#1"/>
    <trip id="bike253" type="bike_bicycle" depart="1362.71" departLane="best" departSpeed="max" from="-578934717#1" to="436291016#6"/>
    <trip id="bike255" type="bike_bicycle" depart="1373.48" departLane="best" from="-578942358" to="184708337#1"/>
    <trip id="bike256" type="bike_bicycle" depart="1378.87" departLane="best" from="578942365" to="36054466#4"/>
    <trip id="bike257" type="bike_bicycle" depart="1384.25" departLane="best" from="578942361#2" to="593766961"/>
    <trip id="bike258" type="bike_bicycle" depart="1389.64" departLane="best" from="-578942371#2" to="-578605862#2"/>
    <trip id="bike259" type="bike_bicycle" depart="1395.03" departLane="best" from="-184708337#2" to="578605862#2"/>
    <trip id="bike260" type="bike_bicycle" depart="1400.41" departLane="best" from="89927838#3" to="278328405#1"/>
    <trip id="bike261" type="bike_bicycle" depart="1405.80" departLane="best" departSpeed="max" from="578934714" to="578942368#1"/>
    <trip id="bike262" type="bike_bicycle" depart="1411.18" departLane="best" departSpeed="max" from="578934714" to="578942364"/>
    <trip id="bike264" type="bike_bicycle" depart="1421.96" departLane="best" departSpeed="max" from="-184708337#3" to="-578934718#1"/>
    <trip id="bike265" type="bike_bicycle" depart="1427.34" departLane="best" from="-578934717#0" to="578934724#2"/>
    <trip id="bike267" type="bike_bicycle" depart="1438.11" departLane="best" from="578934724#0" to="578942367#1"/>
    <trip id="bike268" type="bike_bicycle" depart="1443.50" departLane="best" departSpeed="max" from="-578942331" to="578934712"/>
    <trip id="bike269" type="bike_bicycle" depart="1448.89" departLane="best" from="578942361#1" to="-578934709#0"/>
    <trip id="bike270" type="bike_bicycle" depart="1454.27" departLane="best" from="578942372#2" to="642337373"/>
    <trip id="bike271" type="bike_bicycle" depart="1459.66" departLane="best" from="-578934700#0" to="-184711460"/>
    <trip id="bike272" type="bike_bicycle" depart="1465.05" departLane="best" from="-5962129#0" to="578942331"/>
    <trip id="bike273" type="bike_bicycle" depart="1470.43" departLane="best" from="642337373" to="36054466#8"/>
    <trip id="bike274" type="bike_bicycle" depart="1475.82" departLane="best" from="578942335" to="-578605862#0"/>
    <trip id="bike275" type="bike_bicycle" depart="1481.20" departLane="best" from="578934719" to="578934717#1"/>
    <trip id="bike276" type="bike_bicycle" depart="1486.59" departLane="best" departSpeed="max" from="-578934699" to="578942367#2"/>
    <trip id="bike277" type="bike_bicycle" depart="1491.98" departLane="best" from="593766965" to="578934709#1"/>
    <trip id="bike278" type="bike_bicycle" depart="1497.36" departLane="best" departSpeed="max" from="-578934709#1" to="642751754#1"/>
    <trip id="bike279" type="bike_bicycle" depart="1502.75" departLane="best" from="578942368#1" to="278328405#0"/>
    <trip id="bike280" type="bike_bicycle" depart="1508.14" departLane="best" from="36054466#9" to="36054466#2"/>
    <trip id="bike281" type="bike_bicycle" depart="1513.52" departLane="best" from="436291018" to="234953562"/>
    <trip id="bike282" type="bike_bicycle" depart="1518.91" departLane="best" from="593766964" to="578942374"/>
    <trip id="bike283" type="bike_bicycle" depart="1524.29" departLane="best" departSpeed="max" from="-578934699" to="642337372"/>