<?xml version="1.0" encoding="UTF-8"?>

<!-- generated on Wed Aug  7 15:13:58 2019 by Eclipse SUMO duarouter Version 1.2.0
<configuration xmlns:xsi="http://www.w3.org/2001/XMLSchema-instance" xsi:noNamespaceSchemaLocation="http://sumo.dlr.de/xsd/duarouterConfiguration.xsd">

    <input>
        <net-file value="osm.net.xml"/>
        <route-files value="osm.passenger.trips.xml"/>
    </input>

    <output>
        <output-file value="osm.passenger.trips.xml.tmp"/>
        <write-trips value="true"/>
    </output>

    <time>
        <begin value="0"/>
        <end value="3600.0"/>
    </time>

    <report>
        <no-warnings value="true"/>
        <ignore-errors value="true"/>
        <no-step-log value="true"/>
    </report>

</configuration>
-->

<routes xmlns:xsi="http://www.w3.org/2001/XMLSchema-instance" xsi:noNamespaceSchemaLocation="http://sumo.dlr.de/xsd/routes_file.xsd">
    <vType id="veh_passenger" vClass="passenger"/>
    <trip id="veh0" type="veh_passenger" depart="0.00" departLane="best" departSpeed="max" from="642337374#0" to="-5962129#2"/>
    <trip id="veh1" type="veh_passenger" depart="2.86" departLane="best" from="641705063#3" to="5955850#2"/>
    <trip id="veh2" type="veh_passenger" depart="5.72" departLane="best" from="436291016#2" to="278328405#1"/>
    <trip id="veh3" type="veh_passenger" depart="8.58" departLane="best" departSpeed="max" from="89922370#0" to="436291016#10"/>
    <trip id="veh4" type="veh_passenger" depart="11.44" departLane="best" departSpeed="max" from="-5955850#2" to="-5962129#4"/>
    <trip id="veh5" type="veh_passenger" depart="14.29" departLane="best" from="436291064#0" to="642751754#1"/>
    <trip id="veh7" type="veh_passenger" depart="20.01" departLane="best" departSpeed="max" from="6024091#0" to="-593766960"/>
    <trip id="veh9" type="veh_passenger" depart="25.73" departLane="best" departSpeed="max" from="-5955850#2" to="36054466#8"/>
    <trip id="veh10" type="veh_passenger" depart="28.59" departLane="best" departSpeed="max" from="-5955850#2" to="436291011"/>
    <trip id="veh12" type="veh_passenger" depart="34.31" departLane="best" departSpeed="max" from="89927838#0" to="593766962#0"/>
    <trip id="veh13" type="veh_passenger" depart="37.17" departLane="best" from="436291064#1" to="5955850#2"/>
    <trip id="veh15" type="veh_passenger" depart="42.88" departLane="best" departSpeed="max" from="642337374#0" to="436291016#10"/>
    <trip id="veh16" type="veh_passenger" depart="45.74" departLane="best" departSpeed="max" from="573865733#0" to="436291010"/>
    <trip id="veh17" type="veh_passenger" depart="48.60" departLane="best" departSpeed="max" from="-5955850#2" to="-593766963"/>
    <trip id="veh18" type="veh_passenger" depart="51.46" departLane="best" from="5962129#2" to="436291029"/>
    <trip id="veh19" type="veh_passenger" depart="54.32" departLane="best" from="419814433#4" to="593766962#0"/>
    <trip id="veh21" type="veh_passenger" depart="60.04" departLane="best" from="436291013" to="593766962#0"/>
    <trip id="veh22" type="veh_passenger" depart="62.90" departLane="best" departSpeed="max" from="573865733#0" to="278328405#0"/>
    <trip id="veh23" type="veh_passenger" depart="65.75" departLane="best" from="6024091#5" to="436291029"/>
    <trip id="veh24" type="veh_passenger" depart="68.61" departLane="best" from="-593766960" to="642361032"/>
    <trip id="veh25" type="veh_passenger" depart="71.47" departLane="best" from="436291013" to="-593766965"/>
    <trip id="veh26" type="veh_passenger" depart="74.33" departLane="best" departSpeed="max" from="642337374#0" to="642751754#0"/>
    <trip id="veh27" type="veh_passenger" depart="77.19" departLane="best" departSpeed="max" from="-5955850#2" to="436291020#1"/>
    <trip id="veh28" type="veh_passenger" depart="80.05" departLane="best" departSpeed="max" from="436291021#0" to="436291029"/>
    <trip id="veh29" type="veh_passenger" depart="82.91" departLane="best" from="419814433#4" to="641705146#2"/>
    <trip id="veh30" type="veh_passenger" depart="85.77" departLane="best" from="89927838#3" to="593766962#0"/>
    <trip id="veh31" type="veh_passenger" depart="88.63" departLane="best" from="-5955850#0" to="593766961"/>
    <trip id="veh32" type="veh_passenger" depart="91.48" departLane="best" departSpeed="max" from="419814433#0" to="642361032"/>
    <trip id="veh33" type="veh_passenger" depart="94.34" departLane="best" departSpeed="max" from="89922370#0" to="436291031"/>
    <trip id="veh34" type="veh_passenger" depart="97.20" departLane="best" departSpeed="max" from="-5955850#2" to="436291016#8"/>
    <trip id="veh35" type="veh_passenger" depart="100.06" departLane="best" departSpeed="max" from="6024091#0" to="593766965"/>
    <trip id="veh36" type="veh_passenger" depart="102.92" departLane="best" departSpeed="max" from="89927838#0" to="-5962129#4"/>
    <trip id="veh37" type="veh_passenger" depart="105.78" departLane="best" departSpeed="max" from="642337374#0" to="419814433#2"/>
    <trip id="veh38" type="veh_passenger" depart="108.64" departLane="best" departSpeed="max" from="419814433#0" to="642361032"/>
    <trip id="veh40" type="veh_passenger" depart="114.36" departLane="best" departSpeed="max" from="89927838#0" to="642361032"/>
    <trip id="veh43" type="veh_passenger" depart="122.93" departLane="best" departSpeed="max" from="89922370#0" to="89927838#3"/>
    <trip id="veh44" type="veh_passenger" depart="125.79" departLane="best" departSpeed="max" from="89927838#0" to="436291062"/>
    <trip id="veh45" type="veh_passenger" depart="128.65" departLane="best" departSpeed="max" from="436291021#0" to="641705146#2"/>
    <trip id="veh46" type="veh_passenger" depart="131.51" departLane="best" departSpeed="max" from="-5955850#2" to="36054466#10"/>
    <trip id="veh47" type="veh_passenger" depart="134.37" departLane="best" departSpeed="max" from="573865733#0" to="5955850#0"/>
    <trip id="veh48" type="veh_passenger" depart="137.23" departLane="best" departSpeed="max" from="419814433#0" to="-89927838#0"/>
    <trip id="veh49" type="veh_passenger" depart="140.09" departLane="best" departSpeed="max" from="642337374#0" to="419814433#2"/>
    <trip id="veh50" type="veh_passenger" depart="142.94" departLane="best" departSpeed="max" from="573865733#0" to="593766960"/>
    <trip id="veh51" type="veh_passenger" depart="145.80" departLane="best" from="-5955850#1" to="436291018"/>
    <trip id="veh52" type="veh_passenger" depart="148.66" departLane="best" from="-5955850#1" to="36054466#4"/>
    <trip id="veh56" type="veh_passenger" depart="160.10" departLane="best" from="-5962129#5" to="-89927838#0"/>
    <trip id="veh57" type="veh_passenger" depart="162.96" departLane="best" from="-5962129#0" to="436291029"/>
    <trip id="veh58" type="veh_passenger" depart="165.82" departLane="best" departSpeed="max" from="6024091#0" to="36054466#2"/>
    <trip id="veh59" type="veh_passenger" depart="168.67" departLane="best" departSpeed="max" from="436291021#0" to="642361032"/>
    <trip id="veh60" type="veh_passenger" depart="171.53" departLane="best" from="6024091#2" to="436291029"/>
    <trip id="veh61" type="veh_passenger" depart="174.39" departLane="best" from="642337374#1" to="436291029"/>
    <trip id="veh62" type="veh_passenger" depart="177.25" departLane="best" from="641705063#2" to="641705146#2"/>
    <trip id="veh63" type="veh_passenger" depart="180.11" departLane="best" departSpeed="max" from="642337374#0" to="36054466#4"/>
    <trip id="veh64" type="veh_passenger" depart="182.97" departLane="best" from="641705063#0" to="642337372"/>
    <trip id="veh66" type="veh_passenger" depart="188.69" departLane="best" departSpeed="max" from="642337374#0" to="642751754#1"/>
    <trip id="veh67" type="veh_passenger" depart="191.55" departLane="best" from="641705063#3" to="641705146#2"/>
    <trip id="veh68" type="veh_passenger" depart="194.40" departLane="best" from="436291016#1" to="641705146#2"/>
    <trip id="veh69" type="veh_passenger" depart="197.26" departLane="best" from="89922370#5" to="436291011"/>
    <trip id="veh70" type="veh_passenger" depart="200.12" departLane="best" departSpeed="max" from="89922370#0" to="-89927838#0"/>
    <trip id="veh71" type="veh_passenger" depart="202.98" departLane="best" departSpeed="max" from="89927838#0" to="36054466#10"/>
    <trip id="veh72" type="veh_passenger" depart="205.84" departLane="best" from="89922370#5" to="436291010"/>
    <trip id="veh73" type="veh_passenger" depart="208.70" departLane="best" departSpeed="max" from="573865733#0" to="436291029"/>
    <trip id="veh74" type="veh_passenger" depart="211.56" departLane="best" from="419814433#1" to="5955850#2"/>
    <trip id="veh75" type="veh_passenger" depart="214.42" departLane="best" from="6024091#2" to="593766965"/>
    <trip id="veh76" type="veh_passenger" depart="217.28" departLane="best" from="436291016#0" to="641705146#2"/>
    <trip id="veh77" type="veh_passenger" depart="220.13" departLane="best" departSpeed="max" from="6024091#0" to="436291016#0"/>
    <trip id="veh78" type="veh_passenger" depart="222.99" departLane="best" departSpeed="max" from="89922370#0" to="5955850#0"/>
    <trip id="veh79" type="veh_passenger" depart="225.85" departLane="best" from="436291013" to="436291029"/>
    <trip id="veh81" type="veh_passenger" depart="231.57" departLane="best" departSpeed="max" from="-5955850#2" to="436291029"/>
    <trip id="veh82" type="veh_passenger" depart="234.43" departLane="best" departSpeed="max" from="419814433#0" to="436291020#0"/>
    <trip id="veh84" type="veh_passenger" depart="240.15" departLane="best" from="36054466#4" to="5955850#2"/>
    <trip id="veh85" type="veh_passenger" depart="243.01" departLane="best" from="6024091#3" to="634644489"/>
    <trip id="veh86" type="veh_passenger" depart="245.86" departLane="best" departSpeed="max" from="419814433#0" to="641705146#2"/>
    <trip id="veh87" type="veh_passenger" depart="248.72" departLane="best" departSpeed="max" from="6024091#0" to="436291029"/>
    <trip id="veh89" type="veh_passenger" depart="254.44" departLane="best" departSpeed="max" from="436291021#0" to="436291010"/>
    <trip id="veh90" type="veh_passenger" depart="257.30" departLane="best" departSpeed="max" from="419814433#0" to="593766962#0"/>
    <trip id="veh92" type="veh_passenger" depart="263.02" departLane="best" departSpeed="max" from="419814433#0" to="5955850#2"/>
    <trip id="veh94" type="veh_passenger" depart="268.74" departLane="best" from="436291018" to="642361032"/>
    <trip id="veh95" type="veh_passenger" depart="271.60" departLane="best" departSpeed="max" from="573865733#0" to="5955850#2"/>
    <trip id="veh96" type="veh_passenger" depart="274.45" departLane="best" from="642337373" to="642751754#1"/>
    <trip id="veh97" type="veh_passenger" depart="277.31" departLane="best" from="436291018" to="6024091#2"/>
    <trip id="veh99" type="veh_passenger" depart="283.03" departLane="best" from="573865733#1" to="-419814433#1"/>
    <trip id="veh100" type="veh_passenger" depart="285.89" departLane="best" from="89927838#3" to="436291016#10"/>
    <trip id="veh101" type="veh_passenger" depart="288.75" departLane="best" from="593766965" to="6024091#3"/>
    <trip id="veh102" type="veh_passenger" depart="291.61" departLane="best" departSpeed="max" from="89922370#0" to="36054466#10"/>
    <trip id="veh103" type="veh_passenger" depart="294.47" departLane="best" departSpeed="max" from="573865733#0" to="36054466#5"/>
    <trip id="veh104" type="veh_passenger" depart="297.33" departLane="best" departSpeed="max" from="6024091#0" to="634644489"/>
    <trip id="veh106" type="veh_passenger" depart="303.04" departLane="best" from="6024091#2" to="-89927838#0"/>
    <trip id="veh107" type="veh_passenger" depart="305.90" departLane="best" from="641705064#1" to="642751754#1"/>
    <trip id="veh108" type="veh_passenger" depart="308.76" departLane="best" departSpeed="max" from="89922370#0" to="436291016#5"/>
    <trip id="veh109" type="veh_passenger" depart="311.62" departLane="best" departSpeed="max" from="-5955850#2" to="641705063#0"/>
    <trip id="veh110" type="veh_passenger" depart="314.48" departLane="best" from="-5962129#3" to="642751754#1"/>
    <trip id="veh111" type="veh_passenger" depart="317.34" departLane="best" from="641705063#1" to="436291016#10"/>
    <trip id="veh112" type="veh_passenger" depart="320.20" departLane="best" from="-5962129#0" to="642751754#1"/>
    <trip id="veh113" type="veh_passenger" depart="323.06" departLane="best" from="593766961" to="641705146#0"/>
    <trip id="veh114" type="veh_passenger" depart="325.91" departLane="best" departSpeed="max" from="6024091#0" to="642751754#1"/>
    <trip id="veh115" type="veh_passenger" depart="328.77" departLane="best" from="419814433#4" to="641705146#2"/>
    <trip id="veh116" type="veh_passenger" depart="331.63" departLane="best" departSpeed="max" from="642337374#0" to="419814433#1"/>
    <trip id="veh117" type="veh_passenger" depart="334.49" departLane="best" from="642337372" to="36054466#10"/>
    <trip id="veh118" type="veh_passenger" depart="337.35" departLane="best" departSpeed="max" from="6024091#0" to="436291011"/>
    <trip id="veh119" type="veh_passenger" depart="340.21" departLane="best" departSpeed="max" from="-5955850#2" to="5962129#1"/>
    <trip id="veh120" type="veh_passenger" depart="343.07" departLane="best" departSpeed="max" from="436291021#0" to="6024091#5"/>
    <trip id="veh121" type="veh_passenger" depart="345.93" departLane="best" departSpeed="max" from="436291021#0" to="641705063#2"/>
    <trip id="veh122" type="veh_passenger" depart="348.79" departLane="best" departSpeed="max" from="-5955850#2" to="36054466#6"/>
    <trip id="veh123" type="veh_passenger" depart="351.64" departLane="best" departSpeed="max" from="573865733#0" to="436291019"/>
    <trip id="veh124" type="veh_passenger" depart="354.50" departLane="best" departSpeed="max" from="6024091#0" to="436291011"/>
    <trip id="veh125" type="veh_passenger" depart="357.36" departLane="best" departSpeed="max" from="419814433#0" to="-89927838#0"/>
    <trip id="veh126" type="veh_passenger" depart="360.22" departLane="best" from="5962129#5" to="-89927838#0"/>
    <trip id="veh127" type="veh_passenger" depart="363.08" departLane="best" departSpeed="max" from="642337374#0" to="436291020#2"/>
    <trip id="veh129" type="veh_passenger" depart="368.80" departLane="best" departSpeed="max" from="89922370#0" to="436291020#0"/>
    <trip id="veh130" type="veh_passenger" depart="371.66" departLane="best" from="-5955850#1" to="593766961"/>
    <trip id="veh131" type="veh_passenger" depart="374.52" departLane="best" departSpeed="max" from="573865733#0" to="436291016#1"/>
    <trip id="veh133" type="veh_passenger" depart="380.23" departLane="best" departSpeed="max" from="89927838#0" to="436291016#1"/>
    <trip id="veh134" type="veh_passenger" depart="383.09" departLane="best" departSpeed="max" from="6024091#0" to="642751754#0"/>
    <trip id="veh135" type="veh_passenger" depart="385.95" departLane="best" from="5955850#0" to="278328405#1"/>
    <trip id="veh136" type="veh_passenger" depart="388.81" departLane="best" departSpeed="max" from="419814433#0" to="5955850#2"/>
    <trip id="veh137" type="veh_passenger" depart="391.67" departLane="best" departSpeed="max" from="6024091#0" to="436291018"/>
    <trip id="veh138" type="veh_passenger" depart="394.53" departLane="best" from="5962129#3" to="642361032"/>
    <trip id="veh139" type="veh_passenger" depart="397.39" departLane="best" from="593766964" to="642361032"/>
    <trip id="veh141" type="veh_passenger" depart="403.10" departLane="best" from="5962129#4" to="5955850#2"/>
    <trip id="veh142" type="veh_passenger" depart="405.96" departLane="best" departSpeed="max" from="89922370#0" to="436291029"/>
    <trip id="veh143" type="veh_passenger" depart="408.82" departLane="best" departSpeed="max" from="-593766962#1" to="436291016#8"/>
    <trip id="veh144" type="veh_passenger" depart="411.68" departLane="best" departSpeed="max" from="-5955850#2" to="642751754#1"/>
    <trip id="veh145" type="veh_passenger" depart="414.54" departLane="best" departSpeed="max" from="89922370#0" to="89927838#3"/>
    <trip id="veh146" type="veh_passenger" depart="417.40" departLane="best" departSpeed="max" from="-593766962#1" to="6024091#3"/>
    <trip id="veh148" type="veh_passenger" depart="423.12" departLane="best" departSpeed="max" from="573865733#0" to="593766962#0"/>
    <trip id="veh149" type="veh_passenger" depart="425.98" departLane="best" from="5962129#0" to="641705146#2"/>
    <trip id="veh150" type="veh_passenger" depart="428.83" departLane="best" from="436291016#1" to="5955850#2"/>
    <trip id="veh152" type="veh_passenger" depart="434.55" departLane="best" from="436291016#1" to="642751754#1"/>
    <trip id="veh154" type="veh_passenger" depart="440.27" departLane="best" departSpeed="max" from="89927838#0" to="593766962#0"/>
    <trip id="veh155" type="veh_passenger" depart="443.13" departLane="best" from="36054466#2" to="436291016#10"/>
    <trip id="veh156" type="veh_passenger" depart="445.99" departLane="best" from="6024091#3" to="593766961"/>
    <trip id="veh158" type="veh_passenger" depart="451.71" departLane="best" from="-5962129#3" to="642751754#1"/>
    <trip id="veh159" type="veh_passenger" depart="454.56" departLane="best" departSpeed="max" from="573865733#0" to="36054466#9"/>
    <trip id="veh160" type="veh_passenger" depart="457.42" departLane="best" departSpeed="max" from="89927838#0" to="642361032"/>
    <trip id="veh162" type="veh_passenger" depart="463.14" departLane="best" departSpeed="max" from="6024091#0" to="436291029"/>
    <trip id="veh163" type="veh_passenger" depart="466.00" departLane="best" departSpeed="max" from="89927838#0" to="419814433#1"/>
    <trip id="veh164" type="veh_passenger" depart="468.86" departLane="best" departSpeed="max" from="89922370#0" to="436291029"/>
    <trip id="veh165" type="veh_passenger" depart="471.72" departLane="best" departSpeed="max" from="436291021#0" to="641705065"/>
    <trip id="veh166" type="veh_passenger" depart="474.58" departLane="best" departSpeed="max" from="436291021#0" to="278328405#0"/>
    <trip id="veh167" type="veh_passenger" depart="477.44" departLane="best" from="436291064#1" to="436291029"/>
    <trip id="veh169" type="veh_passenger" depart="483.15" departLane="best" from="36054466#3" to="5955850#2"/>
    <trip id="veh170" type="veh_passenger" depart="486.01" departLane="best" departSpeed="max" from="573865733#0" to="36054466#8"/>
    <trip id="veh171" type="veh_passenger" depart="488.87" departLane="best" from="6024091#2" to="5955850#2"/>
    <trip id="veh172" type="veh_passenger" depart="491.73" departLane="best" departSpeed="max" from="642337374#0" to="436291016#9"/>
    <trip id="veh173" type="veh_passenger" depart="494.59" departLane="best" from="436291016#2" to="5955850#2"/>
    <trip id="veh174" type="veh_passenger" depart="497.45" departLane="best" from="593766964" to="641705146#2"/>
    <trip id="veh175" type="veh_passenger" depart="500.31" departLane="best" from="642337372" to="641705146#2"/>
    <trip id="veh176" type="veh_passenger" depart="503.17" departLane="best" departSpeed="max" from="6024091#0" to="6024091#5"/>
    <trip id="veh177" type="veh_passenger" depart="506.02" departLane="best" departSpeed="max" from="642337374#0" to="-419814433#2"/>
    <trip id="veh178" type="veh_passenger" depart="508.88" departLane="best" from="-5955850#0" to="593766961"/>
    <trip id="veh179" type="veh_passenger" depart="511.74" departLane="best" departSpeed="max" from="89922370#0" to="89927838#3"/>
    <trip id="veh180" type="veh_passenger" depart="514.60" departLane="best" departSpeed="max" from="-5955850#2" to="593766962#0"/>
    <trip id="veh181" type="veh_passenger" depart="517.46" departLane="best" departSpeed="max" from="642337374#0" to="436291016#9"/>
    <trip id="veh182" type="veh_passenger" depart="520.32" departLane="best" from="5962129#5" to="642361032"/>
    <trip id="veh183" type="veh_passenger" depart="523.18" departLane="best" departSpeed="max" from="-593766962#1" to="641705063#3"/>
    <trip id="veh184" type="veh_passenger" depart="526.04" departLane="best" departSpeed="max" from="573865733#0" to="641705063#2"/>
    <trip id="veh186" type="veh_passenger" depart="531.75" departLane="best" departSpeed="max" from="642337374#0" to="593766960"/>
    <trip id="veh187" type="veh_passenger" depart="534.61" departLane="best" departSpeed="max" from="419814433#0" to="642361032"/>
    <trip id="veh189" type="veh_passenger" depart="540.33" departLane="best" departSpeed="max" from="419814433#0" to="641705146#2"/>
    <trip id="veh190" type="veh_passenger" depart="543.19" departLane="best" departSpeed="max" from="573865733#0" to="436291031"/>
    <trip id="veh191" type="veh_passenger" depart="546.05" departLane="best" departSpeed="max" from="89927838#0" to="436291016#0"/>
    <trip id="veh192" type="veh_passenger" depart="548.91" departLane="best" departSpeed="max" from="89927838#0" to="593766963"/>
    <trip id="veh193" type="veh_passenger" depart="551.77" departLane="best" departSpeed="max" from="-593766962#1" to="436291064#1"/>
    <trip id="veh194" type="veh_passenger" depart="554.63" departLane="best" departSpeed="max" from="436291021#0" to="642361032"/>
    <trip id="veh195" type="veh_passenger" depart="557.48" departLane="best" departSpeed="max" from="573865733#0" to="436291016#10"/>
    <trip id="veh196" type="veh_passenger" depart="560.34" departLane="best" from="593766960" to="642361032"/>
    <trip id="veh197" type="veh_passenger" depart="563.20" departLane="best" departSpeed="max" from="6024091#0" to="-5962129#3"/>
    <trip id="veh198" type="veh_passenger" depart="566.06" departLane="best" from="436291064#0" to="642751754#1"/>
    <trip id="veh199" type="veh_passenger" depart="568.92" departLane="best" from="436291016#2" to="-89927838#0"/>
    <trip id="veh200" type="veh_passenger" depart="571.78" departLane="best" from="89922370#5" to="641705146#2"/>
    <trip id="veh201" type="veh_passenger" depart="574.64" departLane="best" departSpeed="max" from="6024091#0" to="642751754#1"/>
    <trip id="veh202" type="veh_passenger" depart="577.50" departLane="best" departSpeed="max" from="-593766962#1" to="642337372"/>
    <trip id="veh203" type="veh_passenger" depart="580.36" departLane="best" departSpeed="max" from="573865733#0" to="642361032"/>
    <trip id="veh204" type="veh_passenger" depart="583.21" departLane="best" from="436291013" to="436291016#6"/>
    <trip id="veh205" type="veh_passenger" depart="586.07" departLane="best" departSpeed="max" from="-5955850#2" to="642337373"/>
    <trip id="veh206" type="veh_passenger" depart="588.93" departLane="best" departSpeed="max" from="89922370#0" to="436291016#7"/>
    <trip id="veh207" type="veh_passenger" depart="591.79" departLane="best" from="6024091#2" to="278328405#0"/>
    <trip id="veh208" type="veh_passenger" depart="594.65" departLane="best" departSpeed="max" from="89922370#0" to="-419814433#2"/>
    <trip id="veh209" type="veh_passenger" depart="597.51" departLane="best" departSpeed="max" from="89922370#0" to="641705146#2"/>
    <trip id="veh210" type="veh_passenger" depart="600.37" departLane="best" from="436291064#0" to="642751754#1"/>
    <trip id="veh211" type="veh_passenger" depart="603.23" departLane="best" from="642337372" to="436291018"/>
    <trip id="veh213" type="veh_passenger" depart="608.94" departLane="best" departSpeed="max" from="573865733#0" to="-419814433#0"/>
    <trip id="veh214" type="veh_passenger" depart="611.80" departLane="best" from="-5955850#0" to="634644489"/>
    <trip id="veh215" type="veh_passenger" depart="614.66" departLane="best" departSpeed="max" from="642337374#0" to="436291016#10"/>
    <trip id="veh216" type="veh_passenger" depart="617.52" departLane="best" from="-419814433#1" to="641705146#2"/>
    <trip id="veh217" type="veh_passenger" depart="620.38" departLane="best" from="6024091#2" to="436291029"/>
    <trip id="veh218" type="veh_passenger" depart="623.24" departLane="best" from="6024091#2" to="436291020#0"/>
    <trip id="veh219" type="veh_passenger" depart="626.10" departLane="best" from="-5962129#0" to="436291029"/>
    <trip id="veh220" type="veh_passenger" depart="628.96" departLane="best" departSpeed="max" from="89922370#0" to="-593766960"/>
    <trip id="veh221" type="veh_passenger" depart="631.82" departLane="best" from="641705063#1" to="641705146#2"/>
    <trip id="veh222" type="veh_passenger" depart="634.67" departLane="best" departSpeed="max" from="-5955850#2" to="436291064#1"/>
    <trip id="veh223" type="veh_passenger" depart="637.53" departLane="best" departSpeed="max" from="573865733#0" to="-5962129#5"/>
    <trip id="veh224" type="veh_passenger" depart="640.39" departLane="best" departSpeed="max" from="6024091#0" to="641705146#2"/>
    <trip id="veh225" type="veh_passenger" depart="643.25" departLane="best" departSpeed="max" from="6024091#0" to="36054466#4"/>
    <trip id="veh229" type="veh_passenger" depart="654.69" departLane="best" departSpeed="max" from="-5955850#2" to="5962129#5"/>
    <trip id="veh230" type="veh_passenger" depart="657.55" departLane="best" departSpeed="max" from="573865733#0" to="436291029"/>
    <trip id="veh231" type="veh_passenger" depart="660.40" departLane="best" from="436291016#1" to="-89927838#0"/>
    <trip id="veh232" type="veh_passenger" depart="663.26" departLane="best" from="6024091#3" to="641705146#2"/>
    <trip id="veh233" type="veh_passenger" depart="666.12" departLane="best" departSpeed="max" from="6024091#0" to="642751754#1"/>
    <trip id="veh234" type="veh_passenger" depart="668.98" departLane="best" departSpeed="max" from="573865733#0" to="436291016#10"/>
    <trip id="veh235" type="veh_passenger" depart="671.84" departLane="best" departSpeed="max" from="573865733#0" to="36054466#4"/>
    <trip id="veh236" type="veh_passenger" depart="674.70" departLane="best" from="-5962129#0" to="641705146#2"/>
    <trip id="veh237" type="veh_passenger" depart="677.56" departLane="best" departSpeed="max" from="573865733#0" to="641705064#0"/>
    <trip id="veh238" type="veh_passenger" depart="680.42" departLane="best" from="642337372" to="642751754#1"/>
    <trip id="veh239" type="veh_passenger" depart="683.28" departLane="best" departSpeed="max" from="89922370#0" to="641705146#0"/>
    <trip id="veh240" type="veh_passenger" depart="686.13" departLane="best" departSpeed="max" from="6024091#0" to="436291016#1"/>
    <trip id="veh242" type="veh_passenger" depart="691.85" departLane="best" from="436291018" to="436291016#10"/>
    <trip id="veh243" type="veh_passenger" depart="694.71" departLane="best" departSpeed="max" from="-5955850#2" to="-593766964"/>
    <trip id="veh245" type="veh_passenger" depart="700.43" departLane="best" from="6024091#3" to="-89927838#0"/>
    <trip id="veh246" type="veh_passenger" depart="703.29" departLane="best" departSpeed="max" from="6024091#0" to="436291029"/>
    <trip id="veh247" type="veh_passenger" depart="706.15" departLane="best" from="-5955850#1" to="641705146#2"/>
    <trip id="veh248" type="veh_passenger" depart="709.01" departLane="best" departSpeed="max" from="-593766962#1" to="-419814433#0"/>
    <trip id="veh249" type="veh_passenger" depart="711.86" departLane="best" departSpeed="max" from="89922370#0" to="641705146#2"/>
    <trip id="veh250" type="veh_passenger" depart="714.72" departLane="best" departSpeed="max" from="573865733#0" to="436291031"/>
    <trip id="veh251" type="veh_passenger" depart="717.58" departLane="best" departSpeed="max" from="89922370#0" to="-5962129#3"/>
    <trip id="veh252" type="veh_passenger" depart="720.44" departLane="best" departSpeed="max" from="573865733#0" to="436291029"/>
    <trip id="veh253" type="veh_passenger" depart="723.30" departLane="best" from="-5962129#1" to="436291029"/>
    <trip id="veh254" type="veh_passenger" depart="726.16" departLane="best" from="642337374#1" to="436291016#10"/>
    <trip id="veh255" type="veh_passenger" depart="729.02" departLane="best" departSpeed="max" from="6024091#0" to="641705065"/>
    <trip id="veh256" type="veh_passenger" depart="731.88" departLane="best" from="-89927838#3" to="36054466#10"/>
    <trip id="veh257" type="veh_passenger" depart="734.74" departLane="best" departSpeed="max" from="573865733#0" to="6024091#5"/>
    <trip id="veh259" type="veh_passenger" depart="740.45" departLane="best" departSpeed="max" from="573865733#0" to="593766962#0"/>
    <trip id="veh260" type="veh_passenger" depart="743.31" departLane="best" from="-593766964" to="641705146#1"/>
    <trip id="veh261" type="veh_passenger" depart="746.17" departLane="best" departSpeed="max" from="-5955850#2" to="641705146#2"/>
    <trip id="veh262" type="veh_passenger" depart="749.03" departLane="best" departSpeed="max" from="436291021#0" to="436291019"/>
    <trip id="veh263" type="veh_passenger" depart="751.89" departLane="best" departSpeed="max" from="642337374#0" to="436291018"/>
    <trip id="veh264" type="veh_passenger" depart="754.75" departLane="best" from="641705064#0" to="593766962#0"/>
    <trip id="veh265" type="veh_passenger" depart="757.61" departLane="best" from="234953562" to="-593766965"/>
    <trip id="veh267" type="veh_passenger" depart="763.32" departLane="best" departSpeed="max" from="436291021#0" to="36054466#1"/>
    <trip id="veh268" type="veh_passenger" depart="766.18" departLane="best" departSpeed="max" from="6024091#0" to="593766962#0"/>
    <trip id="veh269" type="veh_passenger" depart="769.04" departLane="best" from="-641705065" to="436291016#10"/>
    <trip id="veh270" type="veh_passenger" depart="771.90" departLane="best" departSpeed="max" from="89927838#0" to="5955850#2"/>
    <trip id="veh271" type="veh_passenger" depart="774.76" departLane="best" departSpeed="max" from="89922370#0" to="436291016#1"/>