<?xml version="1.0" encoding="UTF-8"?>

<!-- generated on Wed Aug  7 15:13:59 2019 by Eclipse SUMO duarouter Version 1.2.0
<configuration xmlns:xsi="http://www.w3.org/2001/XMLSchema-instance" xsi:noNamespaceSchemaLocation="http://sumo.dlr.de/xsd/duarouterConfiguration.xsd">

    <input>
        <net-file value="osm.net.xml"/>
        <route-files value="osm.truck.trips.xml"/>
    </input>

    <output>
        <output-file value="osm.truck.trips.xml.tmp"/>
        <write-trips value="true"/>
    </output>

    <time>
        <begin value="0"/>
        <end value="3600.0"/>
    </time>

    <report>
        <no-warnings value="true"/>
        <ignore-errors value="true"/>
        <no-step-log value="true"/>
    </report>

</configuration>
-->

<routes xmlns:xsi="http://www.w3.org/2001/XMLSchema-instance" xsi:noNamespaceSchemaLocation="http://sumo.dlr.de/xsd/routes_file.xsd">
    <vType id="truck_truck" vClass="truck"/>
    <trip id="truck0" type="truck_truck" depart="0.00" departLane="best" departSpeed="max" from="6024091#0" to="5955850#2"/>
    <trip id="truck1" type="truck_truck" depart="18.79" departLane="best" from="641705064#0" to="5955850#2"/>
    <trip id="truck2" type="truck_truck" depart="37.59" departLane="best" from="436291064#1" to="5955850#2"/>
    <trip id="truck3" type="truck_truck" depart="56.38" departLane="best" departSpeed="max" from="89922370#0" to="436291016#7"/>
    <trip id="truck4" type="truck_truck" depart="75.18" departLane="best" departSpeed="max" from="-5955850#2" to="593766962#0"/>
    <trip id="truck5" type="truck_truck" depart="93.97" departLane="best" departSpeed="max" from="-5955850#2" to="436291016#3"/>
    <trip id="truck6" type="truck_truck" depart="112.77" departLane="best" departSpeed="max" from="89922370#0" to="641705146#2"/>
    <trip id="truck7" type="truck_truck" depart="131.56" departLane="best" departSpeed="max" from="-5955850#2" to="36054466#1"/>
    <trip id="truck8" type="truck_truck" depart="150.36" departLane="best" departSpeed="max" from="89922370#0" to="436291064#0"/>
    <trip id="truck9" type="truck_truck" depart="169.15" departLane="best" departSpeed="max" from="436291021#0" to="641705146#2"/>
    <trip id="truck10" type="truck_truck" depart="187.95" departLane="best" departSpeed="max" from="573865733#0" to="5955850#2"/>
    <trip id="truck11" type="truck_truck" depart="206.74" departLane="best" departSpeed="max" from="573865733#0" to="593766962#0"/>
    <trip id="truck13" type="truck_truck" depart="244.33" departLane="best" departSpeed="max" from="-5955850#2" to="-5962129#1"/>
    <trip id="truck14" type="truck_truck" depart="263.12" departLane="best" departSpeed="max" from="-5955850#2" to="436291031"/>
    <trip id="truck15" type="truck_truck" depart="281.92" departLane="best" departSpeed="max" from="89922370#0" to="-5962129#1"/>
    <trip id="truck16" type="truck_truck" depart="300.71" departLane="best" departSpeed="max" from="-5955850#2" to="436291016#3"/>
    <trip id="truck17" type="truck_truck" depart="319.51" departLane="best" from="36054466#3" to="5955850#2"/>
    <trip id="truck18" type="truck_truck" depart="338.30" departLane="best" departSpeed="max" from="-5955850#2" to="436291016#2"/>
    <trip id="truck19" type="truck_truck" depart="357.10" departLane="best" departSpeed="max" from="89922370#0" to="5955850#2"/>
    <trip id="truck20" type="truck_truck" depart="375.89" departLane="best" from="-641705065" to="5955850#2"/>
    <trip id="truck21" type="truck_truck" depart="394.69" departLane="best" departSpeed="max" from="-5955850#2" to="436291016#2"/>
    <trip id="truck22" type="truck_truck" depart="413.48" departLane="best" departSpeed="max" from="642337374#0" to="593766962#0"/>
    <trip id="truck23" type="truck_truck" depart="432.28" departLane="best" from="36054466#0" to="5955850#2"/>
    <trip id="truck24" type="truck_truck" depart="451.07" departLane="best" departSpeed="max" from="573865733#0" to="5955850#2"/>
    <trip id="truck25" type="truck_truck" depart="469.86" departLane="best" departSpeed="max" from="419814433#0" to="5955850#2"/>
    <trip id="truck26" type="truck_truck" depart="488.66" departLane="best" departSpeed="max" from="-5955850#2" to="436291016#7"/>
    <trip id="truck27" type="truck_truck" depart="507.45" departLane="best" departSpeed="max" from="-5955850#2" to="-419814433#0"/>
    <trip id="truck28" type="truck_truck" depart="526.25" departLane="best" departSpeed="max" from="419814433#0" to="5955850#2"/>
    <trip id="truck29" type="truck_truck" depart="545.04" departLane="best" departSpeed="max" from="-5955850#2" to="642751754#1"/>
    <trip id="truck30" type="truck_truck" depart="563.84" departLane="best" departSpeed="max" from="-5955850#2" to="642751754#1"/>
    <trip id="truck31" type="truck_truck" depart="582.63" departLane="best" departSpeed="max" from="6024091#0" to="642751754#1"/>
    <trip id="truck32" type="truck_truck" depart="601.43" departLane="best" departSpeed="max" from="89922370#0" to="436291016#9"/>
    <trip id="truck33" type="truck_truck" depart="620.22" departLane="best" departSpeed="max" from="6024091#0" to="642751754#0"/>
    <trip id="truck34" type="truck_truck" depart="639.02" departLane="best" from="36054466#0" to="5955850#2"/>
    <trip id="truck35" type="truck_truck" depart="657.81" departLane="best" from="5962129#3" to="5955850#2"/>
    <trip id="truck36" type="truck_truck" depart="676.61" departLane="best" departSpeed="max" from="573865733#0" to="593766962#0"/>
    <trip id="truck37" type="truck_truck" depart="695.40" departLane="best" departSpeed="max" from="419814433#0" to="5955850#2"/>
    <trip id="truck39" type="truck_truck" depart="732.99" departLane="best" departSpeed="max" from="-5955850#2" to="642751754#1"/>
    <trip id="truck40" type="truck_truck" depart="751.78" departLane="best" from="-641705065" to="5955850#2"/>
    <trip id="truck41" type="truck_truck" depart="770.58" departLane="best" departSpeed="max" from="573865733#0" to="36054466#10"/>
    <trip id="truck42" type="truck_truck" depart="789.37" departLane="best" from="419814433#1" to="5955850#2"/>
    <trip id="truck43" type="truck_truck" depart="808.17" departLane="best" departSpeed="max" from="642337374#0" to="593766962#0"/>
    <trip id="truck44" type="truck_truck" depart="826.96" departLane="best" departSpeed="max" from="6024091#0" to="642751754#1"/>
    <trip id="truck45" type="truck_truck" depart="845.76" departLane="best" departSpeed="max" from="-5955850#2" to="36054466#10"/>
    <trip id="truck46" type="truck_truck" depart="864.55" departLane="best" departSpeed="max" from="-5955850#2" to="642751754#0"/>
    <trip id="truck47" type="truck_truck" depart="883.35" departLane="best" departSpeed="max" from="-5955850#2" to="436291016#6"/>
    <trip id="truck48" type="truck_truck" depart="902.14" departLane="best" departSpeed="max" from="89922370#0" to="436291016#10"/>
    <trip id="truck49" type="truck_truck" depart="920.93" departLane="best" departSpeed="max" from="6024091#0" to="-89927838#0"/>
    <trip id="truck50" type="truck_truck" depart="939.73" departLane="best" departSpeed="max" from="-5955850#2" to="436291062"/>
    <trip id="truck51" type="truck_truck" depart="958.52" departLane="best" departSpeed="max" from="6024091#0" to="436291029"/>
    <trip id="truck52" type="truck_truck" depart="977.32" departLane="best" departSpeed="max" from="-5955850#2" to="436291020#1"/>
    <trip id="truck53" type="truck_truck" depart="996.11" departLane="best" departSpeed="max" from="89922370#0" to="-419814433#1"/>
    <trip id="truck54" type="truck_truck" depart="1014.91" departLane="best" departSpeed="max" from="6024091#0" to="278328405#1"/>
    <trip id="truck55" type="truck_truck" depart="1033.70" departLane="best" departSpeed="max" from="6024091#0" to="642751754#1"/>
    <trip id="truck56" type="truck_truck" depart="1052.50" departLane="best" departSpeed="max" from="-5955850#2" to="641705146#1"/>
    <trip id="truck57" type="truck_truck" depart="1071.29" departLane="best" departSpeed="max" from="89922370#0" to="641705065"/>
    <trip id="truck58" type="truck_truck" depart="1090.09" departLane="best" departSpeed="max" from="89922370#0" to="641705146#2"/>
    <trip id="truck59" type="truck_truck" depart="1108.88" departLane="best" departSpeed="max" from="-5955850#2" to="-419814433#0"/>
    <trip id="truck61" type="truck_truck" depart="1146.47" departLane="best" departSpeed="max" from="-5955850#2" to="436291020#2"/>
    <trip id="truck62" type="truck_truck" depart="1165.26" departLane="best" departSpeed="max" from="573865733#0" to="593766962#0"/>
    <trip id="truck63" type="truck_truck" depart="1184.06" departLane="best" departSpeed="max" from="-5955850#2" to="436291010"/>
    <trip id="truck64" type="truck_truck" depart="1202.85" departLane="best" departSpeed="max" from="89927838#0" to="5955850#2"/>
    <trip id="truck65" type="truck_truck" depart="1221.65" departLane="best" departSpeed="max" from="89922370#0" to="641705146#0"/>
    <trip id="truck66" type="truck_truck" depart="1240.44" departLane="best" departSpeed="max" from="-5955850#2" to="36054466#4"/>
    <trip id="truck68" type="truck_truck" depart="1278.03" departLane="best" departSpeed="max" from="6024091#0" to="436291029"/>
    <trip id="truck69" type="truck_truck" depart="1296.83" departLane="best" departSpeed="max" from="-5955850#2" to="36054466#4"/>
    <trip id="truck70" type="truck_truck" depart="1315.62" departLane="best" from="436291018" to="5955850#2"/>
    <trip id="truck73" type="truck_truck" depart="1372.01" departLane="best" departSpeed="max" from="-5955850#2" to="593766962#0"/>
    <trip id="truck74" type="truck_truck" depart="1390.80" departLane="best" departSpeed="max" from="573865733#0" to="593766962#0"/>
    <trip id="truck75" type="truck_truck" depart="1409.59" departLane="best" from="-593766965" to="5955850#2"/>
    <trip id="truck76" type="truck_truck" depart="1428.39" departLane="best" departSpeed="max" from="-5955850#2" to="234953562"/>
    <trip id="truck77" type="truck_truck" depart="1447.18" departLane="best" departSpeed="max" from="-5955850#2" to="641705063#1"/>
    <trip id="truck79" type="truck_truck" depart="1484.77" departLane="best" departSpeed="max" from="419814433#0" to="5955850#2"/>
    <trip id="truck80" type="truck_truck" depart="1503.57" departLane="best" departSpeed="max" from="6024091#0" to="641705146#2"/>
    <trip id="truck81" type="truck_truck" depart="1522.36" departLane="best" departSpeed="max" from="89922370#0" to="6024091#2"/>
    <trip id="truck82" type="truck_truck" depart="1541.16" departLane="best" departSpeed="max" from="-5955850#2" to="419814433#1"/>
    <trip id="truck83" type="truck_truck" depart="1559.95" departLane="best" departSpeed="max" from="436291021#0" to="5955850#2"/>
    <trip id="truck84" type="truck_truck" depart="1578.75" departLane="best" from="-5962129#1" to="5955850#2"/>
    <trip id="truck85" type="truck_truck" depart="1597.54" departLane="best" departSpeed="max" from="89922370#0" to="641705146#2"/>
    <trip id="truck86" type="truck_truck" depart="1616.33" departLane="best" departSpeed="max" from="-5955850#2" to="278328405#0"/>
    <trip id="truck87" type="truck_truck" depart="1635.13" departLane="best" from="593766965" to="5955850#2"/>
    <trip id="truck88" type="truck_truck" depart="1653.92" departLane="best" from="234953562" to="5955850#2"/>
    <trip id="truck89" type="truck_truck" depart="1672.72" departLane="best" departSpeed="max" from="89922370#0" to="641705146#2"/>
    <trip id="truck90" type="truck_truck" depart="1691.51" departLane="best" departSpeed="max" from="-5955850#2" to="642751754#1"/>
    <trip id="truck91" type="truck_truck" depart="1710.31" departLane="best" departSpeed="max" from="89922370#0" to="641705146#2"/>
    <trip id="truck92" type="truck_truck" depart="1729.10" departLane="best" departSpeed="max" from="-5955850#2" to="-89927838#0"/>
    <trip id="truck93" type="truck_truck" depart="1747.90" departLane="best" departSpeed="max" from="-5955850#2" to="36054466#7"/>
    <trip id="truck94" type="truck_truck" depart="1766.69" departLane="best" departSpeed="max" from="-5955850#2" to="-89927838#0"/>
    <trip id="truck96" type="truck_truck" depart="1804.28" departLane="best" departSpeed="max" from="89922370#0" to="-419814433#0"/>
    <trip id="truck97" type="truck_truck" depart="1823.08" departLane="best" from="436291011" to="5955850#2"/>
    <trip id="truck98" type="truck_truck" depart="1841.87" departLane="best" departSpeed="max" from="573865733#0" to="5955850#2"/>
    <trip id="truck99" type="truck_truck" depart="1860.66" departLane="best" departSpeed="max" from="89922370#0" to="5955850#1"/>
    <trip id="truck100" type="truck_truck" depart="1879.46" departLane="best" from="36054466#9" to="5955850#2"/>
    <trip id="truck101" type="truck_truck" depart="1898.25" departLane="best" departSpeed="max" from="89922370#0" to="436291016#0"/>
    <trip id="truck102" type="truck_truck" depart="1917.05" departLane="best" from="36054466#0" to="5955850#2"/>
    <trip id="truck104" type="truck_truck" depart="1954.64" departLane="best" departSpeed="max" from="89922370#0" to="436291016#3"/>
    <trip id="truck105" type="truck_truck" depart="1973.43" departLane="best" departSpeed="max" from="-5955850#2" to="-419814433#0"/>
    <trip id="truck106" type="truck_truck" depart="1992.23" departLane="best" departSpeed="max" from="-5955850#2" to="36054466#7"/>
    <trip id="truck107" type="truck_truck" depart="2011.02" departLane="best" from="36054466#8" to="5955850#2"/>
    <trip id="truck108" type="truck_truck" depart="2029.82" departLane="best" departSpeed="max" from="-5955850#2" to="436291062"/>
    <trip id="truck109" type="truck_truck" depart="2048.61" departLane="best" from="36054466#8" to="5955850#2"/>
    <trip id="truck110" type="truck_truck" depart="2067.40" departLane="best" departSpeed="max" from="89922370#0" to="5955850#2"/>
    <trip id="truck111" type="truck_truck" depart="2086.20" departLane="best" departSpeed="max" from="89927838#0" to="5955850#2"/>
    <trip id="truck112" type="truck_truck" depart="2104.99" departLane="best" departSpeed="max" from="-5955850#2" to="36054466#8"/>
    <trip id="truck114" type="truck_truck" depart="2142.58" departLane="best" departSpeed="max" from="573865733#0" to="593766962#0"/>
    <trip id="truck115" type="truck_truck" depart="2161.38" departLane="best" from="641705064#1" to="5955850#2"/>
    <trip id="truck116" type="truck_truck" depart="2180.17" departLane="best" departSpeed="max" from="-5955850#2" to="36054466#7"/>
    <trip id="truck117" type="truck_truck" depart="2198.97" departLane="best" from="-5962129#5" to="5955850#2"/>
    <trip id="truck118" type="truck_truck" depart="2217.76" departLane="best" departSpeed="max" from="-5955850#2" to="436291016#1"/>
    <trip id="truck119" type="truck_truck" depart="2236.56" departLane="best" departSpeed="max" from="6024091#0" to="436291029"/>
    <trip id="truck120" type="truck_truck" depart="2255.35" departLane="best" departSpeed="max" from="419814433#0" to="5955850#2"/>
    <trip id="truck122" type="truck_truck" depart="2292.94" departLane="best" from="419814433#1" to="5955850#2"/>
    <trip id="truck123" type="truck_truck" depart="2311.73" departLane="best" departSpeed="max" from="-5955850#2" to="641705146#2"/>
    <trip id="truck124" type="truck_truck" depart="2330.53" departLane="best" departSpeed="max" from="419814433#0" to="5955850#2"/>
    <trip id="truck125" type="truck_truck" depart="2349.32" departLane="best" from="36054466#0" to="5955850#2"/>
    <trip id="truck126" type="truck_truck" depart="2368.12" departLane="best" from="-419814433#2" to="5955850#2"/>
    <trip id="truck127" type="truck_truck" depart="2386.91" departLane="best" departSpeed="max" from="-5955850#2" to="436291020#0"/>
    <trip id="truck128" type="truck_truck" depart="2405.71" departLane="best" from="436291010" to="5955850#2"/>
    <trip id="truck130" type="truck_truck" depart="2443.30" departLane="best" departSpeed="max" from="6024091#0" to="5955850#2"/>
    <trip id="truck131" type="truck_truck" depart="2462.09" departLane="best" departSpeed="max" from="6024091#0" to="-89927838#0"/>
    <trip id="truck132" type="truck_truck" depart="2480.89" departLane="best" departSpeed="max" from="-5955850#2" to="634644489"/>
    <trip id="truck133" type="truck_truck" depart="2499.68" departLane="best" from="641705063#3" to="5955850#2"/>
    <trip id="truck134" type="truck_truck" depart="2518.48" departLane="best" departSpeed="max" from="-5955850#2" to="-89927838#0"/>
    <trip id="truck135" type="truck_truck" depart="2537.27" departLane="best" departSpeed="max" from="-5955850#2" to="-419814433#0"/>
    <trip id="truck136" type="truck_truck" depart="2556.06" departLane="best" departSpeed="max" from="-5955850#2" to="641705064#1"/>
    <trip id="truck138" type="truck_truck" depart="2593.65" departLane="best" from="-593766960" to="5955850#2"/>
    <trip id="truck139" type="truck_truck" depart="2612.45" departLane="best" from="641705064#0" to="5955850#2"/>
    <trip id="truck140" type="truck_truck" depart="2631.24" departLane="best" departSpeed="max" from="89922370#0" to="-419814433#0"/>
    <trip id="truck141" type="truck_truck" depart="2650.04" departLane="best" departSpeed="max" from="89922370#0" to="6024091#5"/>
    <trip id="truck142" type="truck_truck" depart="2668.83" departLane="best" departSpeed="max" from="89922370#0" to="436291016#10"/>
    <trip id="truck143" type="truck_truck" depart="2687.63" departLane="best" departSpeed="max" from="-5955850#2" to="-89927838#0"/>
    <trip id="truck144" type="truck_truck" depart="2706.42" departLane="best" departSpeed="max" from="419814433#0" to="5955850#2"/>
    <trip id="truck145" type="truck_truck" depart="2725.22" departLane="best" departSpeed="max" from="-5955850#2" to="5962129#2"/>
    <trip id="truck146" type="truck_truck" depart="2744.01" departLane="best" departSpeed="max" from="-5955850#2" to="5962129#4"/>
    <trip id="truck147" type="truck_truck" depart="2762.80" departLane="best" from="-593766965" to="5955850#2"/>
    <trip id="truck148" type="truck_truck" depart="2781.60" departLane="best" departSpeed="max" from="6024091#0" to="642751754#1"/>
    <trip id="truck149" type="truck_truck" depart="2800.39" departLane="best" departSpeed="max" from="6024091#0" to="436291029"/>
    <trip id="truck150" type="truck_truck" depart="2819.19" departLane="best" departSpeed="max" from="573865733#0" to="593766962#0"/>
    <trip id="truck151" type="truck_truck" depart="2837.98" departLane="best" from="-641705065" to="5955850#2"/>
    <trip id="truck152" type="truck_truck" depart="2856.78" departLane="best" from="641705063#3" to="5955850#2"/>
    <trip id="truck153" type="truck_truck" depart="2875.57" departLane="best" departSpeed="max" from="89922370#0" to="642361032"/>
    <trip id="truck154" type="truck_truck" depart="2894.37" departLane="best" from="573865733#1" to="5955850#2"/>
    <trip id="truck155" type="truck_truck" depart="2913.16" departLane="best" departSpeed="max" from="89922370#0" to="5955850#2"/>
    <trip id="truck156" type="truck_truck" depart="2931.96" departLane="best" departSpeed="max" from="-5955850#2" to="-419814433#0"/>
    <trip id="truck157" type="truck_truck" depart="2950.75" departLane="best" from="5955850#0" to="5955850#2"/>
    <trip id="truck158" type="truck_truck" depart="2969.55" departLane="best" departSpeed="max" from="-593766962#1" to="5955850#2"/>
    <trip id="truck159" type="truck_truck" depart="2988.34" departLane="best" departSpeed="max" from="-5955850#2" to="36054466#10"/>
    <trip id="truck160" type="truck_truck" depart="3007.13" departLane="best" from="-5962129#5" to="5955850#2"/>
    <trip id="truck161" type="truck_truck" depart="3025.93" departLane="best" departSpeed="max" from="436291021#0" to="641705146#2"/>
    <trip id="truck162" type="truck_truck" depart="3044.72" departLane="best" departSpeed="max" from="-593766962#1" to="641705146#2"/>
    <trip id="truck163" type="truck_truck" depart="3063.52" departLane="best" departSpeed="max" from="-5955850#2" to="234953562"/>
    <trip id="truck164" type="truck_truck" depart="3082.31" departLane="best" from="-641705065" to="5955850#2"/>
    <trip id="truck165" type="truck_truck" depart="3101.11" departLane="best" departSpeed="max" from="-5955850#2" to="436291016#1"/>
    <trip id="truck166" type="truck_truck" depart="3119.90" departLane="best" departSpeed="max" from="-5955850#2" to="-5962129#0"/>
    <trip id="truck167" type="truck_truck" depart="3138.70" departLane="best" from="-89927838#3" to="5955850#2"/>
    <trip id="truck168" type="truck_truck" depart="3157.49" departLane="best" departSpeed="max" from="89922370#0" to="419814433#1"/>
    <trip id="truck169" type="truck_truck" depart="3176.29" departLane="best" departSpeed="max" from="-593766962#1" to="641705146#2"/>
    <trip id="truck170" type="truck_truck" depart="3195.08" departLane="best" from="641705063#3" to="5955850#2"/>
    <trip id="truck171" type="truck_truck" depart="3213.88" departLane="best" departSpeed="max" from="89922370#0" to="-5962129#1"/>
    <trip id="truck172" type="truck_truck" depart="3232.67" departLane="best" from="5962129#5" to="5955850#2"/>
    <trip id="truck173" type="truck_truck" depart="3251.46" departLane="best" departSpeed="max" from="436291021#0" to="5955850#2"/>
    <trip id="truck174" type="truck_truck" depart="3270.26" departLane="best" departSpeed="max" from="436291021#0" to="5955850#2"/>
    <trip id="truck175" type="truck_truck" depart="3289.05" departLane="best" departSpeed="max" from="-5955850#2" to="5962129#0"/>
    <trip id="truck176" type="truck_truck" depart="3307.85" departLane="best" departSpeed="max" from="89922370#0" to="436291016#10"/>
    <trip id="truck177" type="truck_truck" depart="3326.64" departLane="best" departSpeed="max" from="-5955850#2" to="436291020#0"/>
    <trip id="truck178" type="truck_truck" depart="3345.44" departLane="best" departSpeed="max" from="89922370#0" to="641705146#0"/>
    <trip id="truck179" type="truck_truck" depart="3364.23" departLane="best" departSpeed="max" from="-5955850#2" to="436291016#10"/>
    <trip id="truck180" type="truck_truck" depart="3383.03" departLane="best" from="436291016#3" to="5955850#2"/>
    <trip id="truck181" type="truck_truck" depart="3401.82" departLane="best" departSpeed="max" from="-5955850#2" to="436291010"/>
    <trip id="truck183" type="truck_truck" depart="3439.41" departLane="best" departSpeed="max" from="6024091#0" to="641705146#2"/>
    <trip id="truck184" type="truck_truck" depart="3458.20" departLane="best" from="-5962129#4" to="5955850#2"/>
    <trip id="truck186" type="truck_truck" depart="3495.79" departLane="best" departSpeed="max" from="6024091#0" to="-89927838#0"/>
    <trip id="truck187" type="truck_truck" depart="3514.59" departLane="best" departSpeed="max" from="89927838#0" to="5955850#2"/>
    <trip id="truck188" type="truck_truck" depart="3533.38" departLane="best" departSpeed="max" from="89922370#0" to="436291016#10"/>
    <trip id="truck189" type="truck_truck" depart="3552.18" departLane="best" departSpeed="max" from="89922370#0" to="641705064#1"/>
    <trip id="truck190" type="truck_truck" depart="3570.97" departLane="best" from="436291031" to="5955850#2"/>
    <trip id="truck191" type="truck_truck" depart="3589.77" departLane="best" departSpeed="max" from="573865733#0" to="5955850#2"/>
</routes>
