<?xml version="1.0" encoding="UTF-8"?>

<!-- generated on Wed Aug  7 15:13:59 2019 by Eclipse SUMO duarouter Version 1.2.0
<configuration xmlns:xsi="http://www.w3.org/2001/XMLSchema-instance" xsi:noNamespaceSchemaLocation="http://sumo.dlr.de/xsd/duarouterConfiguration.xsd">

    <input>
        <net-file value="osm.net.xml"/>
        <route-files value="osm.bus.trips.xml"/>
    </input>

    <output>
        <output-file value="osm.bus.trips.xml.tmp"/>
        <write-trips value="true"/>
    </output>

    <time>
        <begin value="0"/>
        <end value="3600.0"/>
    </time>

    <report>
        <no-warnings value="true"/>
        <ignore-errors value="true"/>
        <no-step-log value="true"/>
    </report>

</configuration>
-->

<routes xmlns:xsi="http://www.w3.org/2001/XMLSchema-instance" xsi:noNamespaceSchemaLocation="http://sumo.dlr.de/xsd/routes_file.xsd">
    <vType id="bus_bus" vClass="bus"/>
    <trip id="bus0" type="bus_bus" depart="0.00" departLane="best" departSpeed="max" from="6024091#0" to="5955850#2"/>
    <trip id="bus1" type="bus_bus" depart="14.29" departLane="best" from="641705064#0" to="5955850#2"/>
    <trip id="bus2" type="bus_bus" depart="28.59" departLane="best" from="436291064#1" to="5955850#2"/>
    <trip id="bus3" type="bus_bus" depart="42.88" departLane="best" departSpeed="max" from="89922370#0" to="436291016#7"/>
    <trip id="bus4" type="bus_bus" depart="57.18" departLane="best" departSpeed="max" from="-5955850#2" to="593766962#0"/>
    <trip id="bus5" type="bus_bus" depart="71.47" departLane="best" departSpeed="max" from="-5955850#2" to="436291016#3"/>
    <trip id="bus6" type="bus_bus" depart="85.77" departLane="best" departSpeed="max" from="89922370#0" to="641705146#2"/>
    <trip id="bus7" type="bus_bus" depart="100.06" departLane="best" departSpeed="max" from="-5955850#2" to="36054466#1"/>
    <trip id="bus8" type="bus_bus" depart="114.36" departLane="best" departSpeed="max" from="89922370#0" to="436291064#0"/>
    <trip id="bus9" type="bus_bus" depart="128.65" departLane="best" departSpeed="max" from="436291021#0" to="641705146#2"/>
    <trip id="bus10" type="bus_bus" depart="142.94" departLane="best" departSpeed="max" from="573865733#0" to="5955850#2"/>
    <trip id="bus11" type="bus_bus" depart="157.24" departLane="best" departSpeed="max" from="573865733#0" to="593766962#0"/>
    <trip id="bus13" type="bus_bus" depart="185.83" departLane="best" departSpeed="max" from="-5955850#2" to="-5962129#1"/>
    <trip id="bus14" type="bus_bus" depart="200.12" departLane="best" departSpeed="max" from="-5955850#2" to="436291031"/>
    <trip id="bus15" type="bus_bus" depart="214.42" departLane="best" departSpeed="max" from="89922370#0" to="-5962129#1"/>
    <trip id="bus16" type="bus_bus" depart="228.71" departLane="best" departSpeed="max" from="-5955850#2" to="436291016#3"/>
    <trip id="bus17" type="bus_bus" depart="243.01" departLane="best" from="36054466#3" to="5955850#2"/>
    <trip id="bus18" type="bus_bus" depart="257.30" departLane="best" departSpeed="max" from="-5955850#2" to="436291016#2"/>
    <trip id="bus19" type="bus_bus" depart="271.60" departLane="best" departSpeed="max" from="89922370#0" to="5955850#2"/>
    <trip id="bus20" type="bus_bus" depart="285.89" departLane="best" from="-641705065" to="5955850#2"/>
    <trip id="bus21" type="bus_bus" depart="300.18" departLane="best" departSpeed="max" from="-5955850#2" to="436291016#2"/>
    <trip id="bus22" type="bus_bus" depart="314.48" departLane="best" departSpeed="max" from="642337374#0" to="593766962#0"/>
    <trip id="bus23" type="bus_bus" depart="328.77" departLane="best" from="36054466#0" to="5955850#2"/>
    <trip id="bus24" type="bus_bus" depart="343.07" departLane="best" departSpeed="max" from="573865733#0" to="5955850#2"/>
    <trip id="bus25" type="bus_bus" depart="357.36" departLane="best" departSpeed="max" from="419814433#0" to="5955850#2"/>
    <trip id="bus26" type="bus_bus" depart="371.66" departLane="best" departSpeed="max" from="-5955850#2" to="436291016#7"/>
    <trip id="bus27" type="bus_bus" depart="385.95" departLane="best" departSpeed="max" from="-5955850#2" to="-419814433#0"/>
    <trip id="bus28" type="bus_bus" depart="400.25" departLane="best" departSpeed="max" from="419814433#0" to="5955850#2"/>
    <trip id="bus29" type="bus_bus" depart="414.54" departLane="best" departSpeed="max" from="-5955850#2" to="642751754#1"/>
    <trip id="bus30" type="bus_bus" depart="428.83" departLane="best" departSpeed="max" from="-5955850#2" to="642751754#1"/>
    <trip id="bus31" type="bus_bus" depart="443.13" departLane="best" departSpeed="max" from="6024091#0" to="642751754#1"/>
    <trip id="bus32" type="bus_bus" depart="457.42" departLane="best" departSpeed="max" from="89922370#0" to="436291016#9"/>
    <trip id="bus33" type="bus_bus" depart="471.72" departLane="best" departSpeed="max" from="6024091#0" to="642751754#0"/>
    <trip id="bus34" type="bus_bus" depart="486.01" departLane="best" from="36054466#0" to="5955850#2"/>
    <trip id="bus35" type="bus_bus" depart="500.31" departLane="best" from="5962129#3" to="5955850#2"/>
    <trip id="bus36" type="bus_bus" depart="514.60" departLane="best" departSpeed="max" from="573865733#0" to="593766962#0"/>
    <trip id="bus37" type="bus_bus" depart="528.90" departLane="best" departSpeed="max" from="419814433#0" to="5955850#2"/>
    <trip id="bus39" type="bus_bus" depart="557.48" departLane="best" departSpeed="max" from="-5955850#2" to="642751754#1"/>
    <trip id="bus40" type="bus_bus" depart="571.78" departLane="best" from="-641705065" to="5955850#2"/>
    <trip id="bus41" type="bus_bus" depart="586.07" departLane="best" departSpeed="max" from="573865733#0" to="36054466#10"/>
    <trip id="bus42" type="bus_bus" depart="600.37" departLane="best" from="419814433#1" to="5955850#2"/>
    <trip id="bus43" type="bus_bus" depart="614.66" departLane="best" departSpeed="max" from="642337374#0" to="593766962#0"/>
    <trip id="bus44" type="bus_bus" depart="628.96" departLane="best" departSpeed="max" from="6024091#0" to="642751754#1"/>
    <trip id="bus45" type="bus_bus" depart="643.25" departLane="best" departSpeed="max" from="-5955850#2" to="36054466#10"/>
    <trip id="bus46" type="bus_bus" depart="657.55" departLane="best" departSpeed="max" from="-5955850#2" to="642751754#0"/>
    <trip id="bus47" type="bus_bus" depart="671.84" departLane="best" departSpeed="max" from="-5955850#2" to="436291016#6"/>
    <trip id="bus48" type="bus_bus" depart="686.13" departLane="best" departSpeed="max" from="89922370#0" to="436291016#10"/>
    <trip id="bus49" type="bus_bus" depart="700.43" departLane="best" departSpeed="max" from="6024091#0" to="-89927838#0"/>
    <trip id="bus50" type="bus_bus" depart="714.72" departLane="best" departSpeed="max" from="-5955850#2" to="436291062"/>
    <trip id="bus51" type="bus_bus" depart="729.02" departLane="best" departSpeed="max" from="6024091#0" to="436291029"/>
    <trip id="bus52" type="bus_bus" depart="743.31" departLane="best" departSpeed="max" from="-5955850#2" to="436291020#1"/>
    <trip id="bus53" type="bus_bus" depart="757.61" departLane="best" departSpeed="max" from="89922370#0" to="-419814433#1"/>
    <trip id="bus54" type="bus_bus" depart="771.90" departLane="best" departSpeed="max" from="6024091#0" to="278328405#1"/>
    <trip id="bus55" type="bus_bus" depart="786.20" departLane="best" departSpeed="max" from="6024091#0" to="642751754#1"/>
    <trip id="bus56" type="bus_bus" depart="800.49" departLane="best" departSpeed="max" from="-5955850#2" to="641705146#1"/>
    <trip id="bus57" type="bus_bus" depart="814.79" departLane="best" departSpeed="max" from="89922370#0" to="641705065"/>
    <trip id="bus58" type="bus_bus" depart="829.08" departLane="best" departSpeed="max" from="89922370#0" to="641705146#2"/>
    <trip id="bus59" type="bus_bus" depart="843.37" departLane="best" departSpeed="max" from="-5955850#2" to="-419814433#0"/>
    <trip id="bus61" type="bus_bus" depart="871.96" departLane="best" departSpeed="max" from="-5955850#2" to="436291020#2"/>
    <trip id="bus62" type="bus_bus" depart="886.26" departLane="best" departSpeed="max" from="573865733#0" to="593766962#0"/>
    <trip id="bus63" type="bus_bus" depart="900.55" departLane="best" departSpeed="max" from="-5955850#2" to="436291010"/>
    <trip id="bus64" type="bus_bus" depart="914.85" departLane="best" departSpeed="max" from="89927838#0" to="5955850#2"/>
    <trip id="bus65" type="bus_bus" depart="929.14" departLane="best" departSpeed="max" from="89922370#0" to="641705146#0"/>
    <trip id="bus66" type="bus_bus" depart="943.44" departLane="best" departSpeed="max" from="-5955850#2" to="36054466#4"/>
    <trip id="bus68" type="bus_bus" depart="972.02" departLane="best" departSpeed="max" from="6024091#0" to="436291029"/>
    <trip id="bus69" type="bus_bus" depart="986.32" departLane="best" departSpeed="max" from="-5955850#2" to="36054466#4"/>
    <trip id="bus70" type="bus_bus" depart="1000.61" departLane="best" from="436291018" to="5955850#2"/>
    <trip id="bus73" type="bus_bus" depart="1043.50" departLane="best" departSpeed="max" from="-5955850#2" to="593766962#0"/>
    <trip id="bus74" type="bus_bus" depart="1057.79" departLane="best" departSpeed="max" from="573865733#0" to="593766962#0"/>
    <trip id="bus75" type="bus_bus" depart="1072.09" departLane="best" from="-593766965" to="5955850#2"/>
    <trip id="bus76" type="bus_bus" depart="1086.38" departLane="best" departSpeed="max" from="-5955850#2" to="234953562"/>
    <trip id="bus77" type="bus_bus" depart="1100.67" departLane="best" departSpeed="max" from="-5955850#2" to="641705063#1"/>
    <trip id="bus79" type="bus_bus" depart="1129.26" departLane="best" departSpeed="max" from="419814433#0" to="5955850#2"/>
    <trip id="bus80" type="bus_bus" depart="1143.56" departLane="best" departSpeed="max" from="6024091#0" to="641705146#2"/>
    <trip id="bus81" type="bus_bus" depart="1157.85" departLane="best" departSpeed="max" from="89922370#0" to="6024091#2"/>
    <trip id="bus82" type="bus_bus" depart="1172.15" departLane="best" departSpeed="max" from="-5955850#2" to="419814433#1"/>
    <trip id="bus83" type="bus_bus" depart="1186.44" departLane="best" departSpeed="max" from="436291021#0" to="5955850#2"/>
    <trip id="bus84" type="bus_bus" depart="1200.74" departLane="best" from="-5962129#1" to="5955850#2"/>
    <trip id="bus85" type="bus_bus" depart="1215.03" departLane="best" departSpeed="max" from="89922370#0" to="641705146#2"/>
    <trip id="bus86" type="bus_bus" depart="1229.33" departLane="best" departSpeed="max" from="-5955850#2" to="278328405#0"/>
    <trip id="bus87" type="bus_bus" depart="1243.62" departLane="best" from="593766965" to="5955850#2"/>
    <trip id="bus88" type="bus_bus" depart="1257.91" departLane="best" from="234953562" to="5955850#2"/>
    <trip id="bus89" type="bus_bus" depart="1272.21" departLane="best" departSpeed="max" from="89922370#0" to="641705146#2"/>
    <trip id="bus90" type="bus_bus" depart="1286.50" departLane="best" departSpeed="max" from="-5955850#2" to="642751754#1"/>
    <trip id="bus91" type="bus_bus" depart="1300.80" departLane="best" departSpeed="max" from="89922370#0" to="641705146#2"/>
    <trip id="bus92" type="bus_bus" depart="1315.09" departLane="best" departSpeed="max" from="-5955850#2" to="-89927838#0"/>
    <trip id="bus93" type="bus_bus" depart="1329.39" departLane="best" departSpeed="max" from="-5955850#2" to="36054466#7"/>
    <trip id="bus94" type="bus_bus" depart="1343.68" departLane="best" departSpeed="max" from="-5955850#2" to="-89927838#0"/>
    <trip id="bus96" type="bus_bus" depart="1372.27" departLane="best" departSpeed="max" from="89922370#0" to="-419814433#0"/>
    <trip id="bus97" type="bus_bus" depart="1386.56" departLane="best" from="436291011" to="5955850#2"/>
    <trip id="bus98" type="bus_bus" depart="1400.86" departLane="best" departSpeed="max" from="573865733#0" to="5955850#2"/>
    <trip id="bus99" type="bus_bus" depart="1415.15" departLane="best" departSpeed="max" from="89922370#0" to="5955850#1"/>
    <trip id="bus100" type="bus_bus" depart="1429.45" departLane="best" from="36054466#9" to="5955850#2"/>
    <trip id="bus101" type="bus_bus" depart="1443.74" departLane="best" departSpeed="max" from="89922370#0" to="436291016#0"/>
    <trip id="bus102" type="bus_bus" depart="1458.04" departLane="best" from="36054466#0" to="5955850#2"/>
    <trip id="bus104" type="bus_bus" depart="1486.63" departLane="best" departSpeed="max" from="89922370#0" to="436291016#3"/>
    <trip id="bus105" type="bus_bus" depart="1500.92" departLane="best" departSpeed="max" from="-5955850#2" to="-419814433#0"/>
    <trip id="bus106" type="bus_bus" depart="1515.21" departLane="best" departSpeed="max" from="-5955850#2" to="36054466#7"/>
    <trip id="bus107" type="bus_bus" depart="1529.51" departLane="best" from="36054466#8" to="5955850#2"/>
    <trip id="bus108" type="bus_bus" depart="1543.80" departLane="best" departSpeed="max" from="-5955850#2" to="436291062"/>
    <trip id="bus109" type="bus_bus" depart="1558.10" departLane="best" from="36054466#8" to="5955850#2"/>
    <trip id="bus110" type="bus_bus" depart="1572.39" departLane="best" departSpeed="max" from="89922370#0" to="5955850#2"/>
    <trip id="bus111" type="bus_bus" depart="1586.69" departLane="best" departSpeed="max" from="89927838#0" to="5955850#2"/>
    <trip id="bus112" type="bus_bus" depart="1600.98" departLane="best" departSpeed="max" from="-5955850#2" to="36054466#8"/>
    <trip id="bus114" type="bus_bus" depart="1629.57" departLane="best" departSpeed="max" from="573865733#0" to="593766962#0"/>
    <trip id="bus115" type="bus_bus" depart="1643.86" departLane="best" from="641705064#1" to="5955850#2"/>
    <trip id="bus116" type="bus_bus" depart="1658.16" departLane="best" departSpeed="max" from="-5955850#2" to="36054466#7"/>
    <trip id="bus117" type="bus_bus" depart="1672.45" departLane="best" from="-5962129#5" to="5955850#2"/>
    <trip id="bus118" type="bus_bus" depart="1686.75" departLane="best" departSpeed="max" from="-5955850#2" to="436291016#1"/>
    <trip id="bus119" type="bus_bus" depart="1701.04" departLane="best" departSpeed="max" from="6024091#0" to="436291029"/>
    <trip id="bus120" type="bus_bus" depart="1715.34" departLane="best" departSpeed="max" from="419814433#0" to="5955850#2"/>
    <trip id="bus122" type="bus_bus" depart="1743.93" departLane="best" from="419814433#1" to="5955850#2"/>
    <trip id="bus123" type="bus_bus" depart="1758.22" departLane="best" departSpeed="max" from="-5955850#2" to="641705146#2"/>
    <trip id="bus124" type="bus_bus" depart="1772.52" departLane="best" departSpeed="max" from="419814433#0" to="5955850#2"/>
    <trip id="bus125" type="bus_bus" depart="1786.81" departLane="best" from="36054466#0" to="5955850#2"/>
    <trip id="bus126" type="bus_bus" depart="1801.10" departLane="best" from="-419814433#2" to="5955850#2"/>
    <trip id="bus127" type="bus_bus" depart="1815.40" departLane="best" departSpeed="max" from="-5955850#2" to="436291020#0"/>
    <trip id="bus128" type="bus_bus" depart="1829.69" departLane="best" from="436291010" to="5955850#2"/>
    <trip id="bus130" type="bus_bus" depart="1858.28" departLane="best" departSpeed="max" from="6024091#0" to="5955850#2"/>
    <trip id="bus131" type="bus_bus" depart="1872.58" departLane="best" departSpeed="max" from="6024091#0" to="-89927838#0"/>
    <trip id="bus132" type="bus_bus" depart="1886.87" departLane="best" departSpeed="max" from="-5955850#2" to="634644489"/>
    <trip id="bus133" type="bus_bus" depart="1901.17" departLane="best" from="641705063#3" to="5955850#2"/>
    <trip id="bus134" type="bus_bus" depart="1915.46" departLane="best" departSpeed="max" from="-5955850#2" to="-89927838#0"/>
    <trip id="bus135" type="bus_bus" depart="1929.75" departLane="best" departSpeed="max" from="-5955850#2" to="-419814433#0"/>
    <trip id="bus136" type="bus_bus" depart="1944.05" departLane="best" departSpeed="max" from="-5955850#2" to="641705064#1"/>
    <trip id="bus138" type="bus_bus" depart="1972.64" departLane="best" from="-593766960" to="5955850#2"/>
    <trip id="bus139" type="bus_bus" depart="1986.93" departLane="best" from="641705064#0" to="5955850#2"/>
    <trip id="bus140" type="bus_bus" depart="2001.23" departLane="best" departSpeed="max" from="89922370#0" to="-419814433#0"/>
    <trip id="bus141" type="bus_bus" depart="2015.52" departLane="best" departSpeed="max" from="89922370#0" to="6024091#5"/>
    <trip id="bus142" type="bus_bus" depart="2029.82" departLane="best" departSpeed="max" from="89922370#0" to="436291016#10"/>
    <trip id="bus143" type="bus_bus" depart="2044.11" departLane="best" departSpeed="max" from="-5955850#2" to="-89927838#0"/>
    <trip id="bus144" type="bus_bus" depart="2058.40" departLane="best" departSpeed="max" from="419814433#0" to="5955850#2"/>
    <trip id="bus145" type="bus_bus" depart="2072.70" departLane="best" departSpeed="max" from="-5955850#2" to="5962129#2"/>
    <trip id="bus146" type="bus_bus" depart="2086.99" departLane="best" departSpeed="max" from="-5955850#2" to="5962129#4"/>
    <trip id="bus147" type="bus_bus" depart="2101.29" departLane="best" from="-593766965" to="5955850#2"/>
    <trip id="bus148" type="bus_bus" depart="2115.58" departLane="best" departSpeed="max" from="6024091#0" to="642751754#1"/>
    <trip id="bus149" type="bus_bus" depart="2129.88" departLane="best" departSpeed="max" from="6024091#0" to="436291029"/>
    <trip id="bus150" type="bus_bus" depart="2144.17" departLane="best" departSpeed="max" from="573865733#0" to="593766962#0"/>
    <trip id="bus151" type="bus_bus" depart="2158.47" departLane="best" from="-641705065" to="5955850#2"/>
    <trip id="bus152" type="bus_bus" depart="2172.76" departLane="best" from="641705063#3" to="5955850#2"/>
    <trip id="bus153" type="bus_bus" depart="2187.06" departLane="best" departSpeed="max" from="89922370#0" to="642361032"/>
    <trip id="bus154" type="bus_bus" depart="2201.35" departLane="best" from="573865733#1" to="5955850#2"/>
    <trip id="bus155" type="bus_bus" depart="2215.64" departLane="best" departSpeed="max" from="89922370#0" to="5955850#2"/>
    <trip id="bus156" type="bus_bus" depart="2229.94" departLane="best" departSpeed="max" from="-5955850#2" to="-419814433#0"/>
    <trip id="bus157" type="bus_bus" depart="2244.23" departLane="best" from="5955850#0" to="5955850#2"/>
    <trip id="bus158" type="bus_bus" depart="2258.53" departLane="best" departSpeed="max" from="-593766962#1" to="5955850#2"/>
    <trip id="bus159" type="bus_bus" depart="2272.82" departLane="best" departSpeed="max" from="-5955850#2" to="36054466#10"/>
    <trip id="bus160" type="bus_bus" depart="2287.12" departLane="best" from="-5962129#5" to="5955850#2"/>
    <trip id="bus161" type="bus_bus" depart="2301.41" departLane="best" departSpeed="max" from="436291021#0" to="641705146#2"/>
    <trip id="bus162" type="bus_bus" depart="2315.71" departLane="best" departSpeed="max" from="-593766962#1" to="641705146#2"/>
    <trip id="bus163" type="bus_bus" depart="2330.00" departLane="best" departSpeed="max" from="-5955850#2" to="234953562"/>
    <trip id="bus164" type="bus_bus" depart="2344.29" departLane="best" from="-641705065" to="5955850#2"/>
    <trip id="bus165" type="bus_bus" depart="2358.59" departLane="best" departSpeed="max" from="-5955850#2" to="436291016#1"/>
    <trip id="bus166" type="bus_bus" depart="2372.88" departLane="best" departSpeed="max" from="-5955850#2" to="-5962129#0"/>
    <trip id="bus167" type="bus_bus" depart="2387.18" departLane="best" from="-89927838#3" to="5955850#2"/>
    <trip id="bus168" type="bus_bus" depart="2401.47" departLane="best" departSpeed="max" from="89922370#0" to="419814433#1"/>
    <trip id="bus169" type="bus_bus" depart="2415.77" departLane="best" departSpeed="max" from="-593766962#1" to="641705146#2"/>
    <trip id="bus170" type="bus_bus" depart="2430.06" departLane="best" from="641705063#3" to="5955850#2"/>
    <trip id="bus171" type="bus_bus" depart="2444.36" departLane="best" departSpeed="max" from="89922370#0" to="-5962129#1"/>
    <trip id="bus172" type="bus_bus" depart="2458.65" departLane="best" from="5962129#5" to="5955850#2"/>
    <trip id="bus173" type="bus_bus" depart="2472.94" departLane="best" departSpeed="max" from="436291021#0" to="5955850#2"/>
    <trip id="bus174" type="bus_bus" depart="2487.24" departLane="best" departSpeed="max" from="436291021#0" to="5955850#2"/>
    <trip id="bus175" type="bus_bus" depart="2501.53" departLane="best" departSpeed="max" from="-5955850#2" to="5962129#0"/>
    <trip id="bus176" type="bus_bus" depart="2515.83" departLane="best" departSpeed="max" from="89922370#0" to="436291016#10"/>
    <trip id="bus177" type="bus_bus" depart="2530.12" departLane="best" departSpeed="max" from="-5955850#2" to="436291020#0"/>
    <trip id="bus178" type="bus_bus" depart="2544.42" departLane="best" departSpeed="max" from="89922370#0" to="641705146#0"/>
    <trip id="bus179" type="bus_bus" depart="2558.71" departLane="best" departSpeed="max" from="-5955850#2" to="436291016#10"/>
    <trip id="bus180" type="bus_bus" depart="2573.01" departLane="best" from="436291016#3" to="5955850#2"/>
    <trip id="bus181" type="bus_bus" depart="2587.30" departLane="best" departSpeed="max" from="-5955850#2" to="436291010"/>
    <trip id="bus183" type="bus_bus" depart="2615.89" departLane="best" departSpeed="max" from="6024091#0" to="641705146#2"/>
    <trip id="bus184" type="bus_bus" depart="2630.18" departLane="best" from="-5962129#4" to="5955850#2"/>
    <trip id="bus186" type="bus_bus" depart="2658.77" departLane="best" departSpeed="max" from="6024091#0" to="-89927838#0"/>
    <trip id="bus187" type="bus_bus" depart="2673.07" departLane="best" departSpeed="max" from="89927838#0" to="5955850#2"/>
    <trip id="bus188" type="bus_bus" depart="2687.36" departLane="best" departSpeed="max" from="89922370#0" to="436291016#10"/>
    <trip id="bus189" type="bus_bus" depart="2701.66" departLane="best" departSpeed="max" from="89922370#0" to="641705064#1"/>
    <trip id="bus190" type="bus_bus" depart="2715.95" departLane="best" from="436291031" to="5955850#2"/>
    <trip id="bus191" type="bus_bus" depart="2730.25" departLane="best" departSpeed="max" from="573865733#0" to="5955850#2"/>
    <trip id="bus192" type="bus_bus" depart="2744.54" departLane="best" departSpeed="max" from="-5955850#2" to="641705063#0"/>
    <trip id="bus193" type="bus_bus" depart="2758.83" departLane="best" departSpeed="max" from="-5955850#2" to="436291016#10"/>
    <trip id="bus194" type="bus_bus" depart="2773.13" departLane="best" departSpeed="max" from="-5955850#2" to="-419814433#0"/>
    <trip id="bus195" type="bus_bus" depart="2787.42" departLane="best" departSpeed="max" from="-5955850#2" to="593766965"/>
    <trip id="bus196" type="bus_bus" depart="2801.72" departLane="best" departSpeed="max" from="-5955850#2" to="5962129#3"/>
    <trip id="bus197" type="bus_bus" depart="2816.01" departLane="best" departSpeed="max" from="419814433#0" to="5955850#2"/>
    <trip id="bus198" type="bus_bus" depart="2830.31" departLane="best" departSpeed="max" from="-5955850#2" to="-89927838#0"/>
    <trip id="bus199" type="bus_bus" depart="2844.60" departLane="best" departSpeed="max" from="-5955850#2" to="36054466#1"/>
    <trip id="bus200" type="bus_bus" depart="2858.90" departLane="best" departSpeed="max" from="-5955850#2" to="234953562"/>
    <trip id="bus201" type="bus_bus" depart="2873.19" departLane="best" departSpeed="max" from="-5955850#2" to="436291018"/>
    <trip id="bus202" type="bus_bus" depart="2887.48" departLane="best" departSpeed="max" from="-5955850#2" to="593766962#0"/>
    <trip id="bus203" type="bus_bus" depart="2901.78" departLane="best" from="-641705065" to="5955850#2"/>
    <trip id="bus204" type="bus_bus" depart="2916.07" departLane="best" departSpeed="max" from="-5955850#2" to="-419814433#0"/>
    <trip id="bus205" type="bus_bus" depart="2930.37" departLane="best" from="36054466#6" to="5955850#2"/>
    <trip id="bus206" type="bus_bus" depart="2944.66" departLane="best" from="419814433#1" to="5955850#2"/>
    <trip id="bus207" type="bus_bus" depart="2958.96" departLane="best" departSpeed="max" from="6024091#0" to="641705146#2"/>
    <trip id="bus209" type="bus_bus" depart="2987.55" departLane="best" from="436291064#0" to="5955850#2"/>
    <trip id="bus210" type="bus_bus" depart="3001.84" departLane="best" departSpeed="max" from="6024091#0" to="-89927838#0"/>
    <trip id="bus211" type="bus_bus" depart="3016.13" departLane="best" departSpeed="max" from="89922370#0" to="436291016#4"/>
    <trip id="bus212" type="bus_bus" depart="3030.43" departLane="best" departSpeed="max" from="89922370#0" to="641705064#1"/>
    <trip id="bus213" type="bus_bus" depart="3044.72" departLane="best" departSpeed="max" from="89922370#0" to="436291010"/>
    <trip id="bus214" type="bus_bus" depart="3059.02" departLane="best" departSpeed="max" from="89922370#0" to="436291064#1"/>
    <trip id="bus215" type="bus_bus" depart="3073.31" departLane="best" departSpeed="max" from="-5955850#2" to="-593766963"/>
    <trip id="bus216" type="bus_bus" depart="3087.61" departLane="best" departSpeed="max" from="573865733#0" to="5955850#2"/>
    <trip id="bus217" type="bus_bus" depart="3101.90" departLane="best" from="89927838#3" to="5955850#2"/>
    <trip id="bus218" type="bus_bus" depart="3116.20" departLane="best" departSpeed="max" from="89922370#0" to="5955850#2"/>
    <trip id="bus219" type="bus_bus" depart="3130.49" departLane="best" departSpeed="max" from="89927838#0" to="5955850#2"/>
    <trip id="bus220" type="bus_bus" depart="3144.79" departLane="best" from="436291018" to="5955850#2"/>
    <trip id="bus222" type="bus_bus" depart="3173.37" departLane="best" from="436291016#1" to="5955850#2"/>
    <trip id="bus223" type="bus_bus" depart="3187.67" departLane="best" departSpeed="max" from="89922370#0" to="5955850#2"/>
    <trip id="bus224" type="bus_bus" depart="3201.96" departLane="best" departSpeed="max" from="-5955850#2" to="641705146#0"/>
    <trip id="bus225" type="bus_bus" depart="3216.26" departLane="best" departSpeed="max" from="573865733#0" to="593766962#0"/>
    <trip id="bus227" type="bus_bus" depart="3244.85" departLane="best" departSpeed="max" from="-5955850#2" to="593766962#0"/>
    <trip id="bus228" type="bus_bus" depart="3259.14" departLane="best" departSpeed="max" from="-5955850#2" to="36054466#10"/>
    <trip id="bus230" type="bus_bus" depart="3287.73" departLane="best" from="36054466#9" to="5955850#2"/>
    <trip id="bus231" type="bus_bus" depart="3302.02" departLane="best" departSpeed="max" from="89922370#0" to="436291031"/>
    <trip id="bus232" type="bus_bus" depart="3316.32" departLane="best" departSpeed="max" from="-5955850#2" to="593766963"/>
    <trip id="bus233" type="bus_bus" depart="3330.61" departLane="best" departSpeed="max" from="6024091#0" to="642751754#1"/>
    <trip id="bus234" type="bus_bus" depart="3344.91" departLane="best" from="641705065" to="5955850#2"/>
    <trip id="bus235" type="bus_bus" depart="3359.20" departLane="best" departSpeed="max" from="-5955850#2" to="-593766965"/>
    <trip id="bus236" type="bus_bus" depart="3373.50" departLane="best" departSpeed="max" from="-5955850#2" to="-5962129#4"/>
    <trip id="bus238" type="bus_bus" depart="3402.09" departLane="best" departSpeed="max" from="-5955850#2" to="-419814433#4"/>
    <trip id="bus239" type="bus_bus" depart="3416.38" departLane="best" from="-419814433#2" to="5955850#2"/>
    <trip id="bus240" type="bus_bus" depart="3430.67" departLane="best" departSpeed="max" from="-5955850#2" to="436291016#6"/>
    <trip id="bus241" type="bus_bus" depart="3444.97" departLane="best" departSpeed="max" from="-5955850#2" to="436291029"/>
    <trip id="bus242" type="bus_bus" depart="3459.26" departLane="best" departSpeed="max" from="419814433#0" to="5955850#2"/>
    <trip id="bus243" type="bus_bus" depart="3473.56" departLane="best" departSpeed="max" from="-5955850#2" to="36054466#8"/>
    <trip id="bus244" type="bus_bus" depart="3487.85" departLane="best" departSpeed="max" from="-5955850#2" to="-89927838#0"/>
    <trip id="bus245" type="bus_bus" depart="3502.15" departLane="best" departSpeed="max" from="-5955850#2" to="-89927838#3"/>
    <trip id="bus246" type="bus_bus" depart="3516.44" departLane="best" departSpeed="max" from="436291021#0" to="641705146#2"/>
    <trip id="bus247" type="bus_bus" depart="3530.74" departLane="best" departSpeed="max" from="-5955850#2" to="641705065"/>
    <trip id="bus248" type="bus_bus" depart="3545.03" departLane="best" departSpeed="max" from="-5955850#2" to="634644489"/>
    <trip id="bus249" type="bus_bus" depart="3559.32" departLane="best" departSpeed="max" from="89922370#0" to="5955850#2"/>
    <trip id="bus250" type="bus_bus" depart="3573.62" departLane="best" departSpeed="max" from="-5955850#2" to="436291016#10"/>
    <trip id="bus251" type="bus_bus" depart="3587.91" departLane="best" from="36054466#3" to="5955850#2"/>
</routes>
