<?xml version="1.0" encoding="UTF-8"?>

<!-- generated on mié 27 nov 2019 15:17:51 -03 by Eclipse SUMO netedit Version 1.3.1
<configuration xmlns:xsi="http://www.w3.org/2001/XMLSchema-instance" xsi:noNamespaceSchemaLocation="http://sumo.dlr.de/xsd/netconvertConfiguration.xsd">

    <input>
        <sumo-net-file value="osm.net.xml"/>
    </input>

    <output>
        <output-file value="osm.net.xml"/>
        <output.street-names value="true"/>
    </output>

    <processing>
        <geometry.max-grade.fix value="false"/>
        <offset.disable-normalization value="true"/>
        <opposites.guess.fix-lengths value="true"/>
        <lefthand value="false"/>
    </processing>

    <junctions>
        <no-internal-links value="false"/>
        <no-turnarounds value="true"/>
        <junctions.corner-detail value="5"/>
        <junctions.limit-turn-speed value="5.5"/>
        <rectangular-lane-cut value="false"/>
    </junctions>

    <pedestrian>
        <walkingareas value="true"/>
    </pedestrian>

    <netedit>
        <additional-files value="/home/jose/PycharmProjects/SUMO_SanDiego_Pilot1/MicroDescongest/e2.add.xml"/>
    </netedit>

</configuration>
-->

<additional xmlns:xsi="http://www.w3.org/2001/XMLSchema-instance" xsi:noNamespaceSchemaLocation="http://sumo.dlr.de/xsd/additional_file.xsd">
    <e2Detector id="intersection/0002/e2det/e01/__wn" lane="-5962129#0_1" pos="10.63" length="20.00" freq="1.00" file="e2output.xml" friendlyPos="1"/>
    <e2Detector id="intersection/0002/e2det/s01/__ne" lane="436291016#3_1" pos="3.33" length="20.00" freq="1.00" file="e2output.xml" friendlyPos="1"/>
    <e2Detector id="intersection/0002/e2det/s02/__n_" lane="436291016#3_2" pos="3.33" length="20.00" freq="1.00" file="e2output.xml" friendlyPos="1"/>
    <e2Detector id="intersection/0002/e2det/s03/_wn_" lane="436291016#3_3" pos="3.33" length="20.00" freq="1.00" file="e2output.xml" friendlyPos="1"/>
    <e2Detector id="intersection/0002/e2det/w01/_ne_" lane="-5955850#0_1" pos="53.46" length="20.00" freq="1.00" file="e2output.xml" friendlyPos="1"/>
    <e2Detector id="intersection/0003/e2det/e01/_sw_" lane="-593766960_1" pos="17.86" length="20.00" freq="1.00" file="e2output.xml" friendlyPos="1"/>
    <e2Detector id="intersection/0003/e2det/n01/__sw" lane="436291021#0_1" pos="132.98" length="20.00" freq="1.00" file="e2output.xml" friendlyPos="1"/>
    <e2Detector id="intersection/0003/e2det/n02/_es_" lane="436291021#0_2" pos="132.98" length="20.00" freq="1.00" file="e2output.xml" friendlyPos="1"/>
    <e2Detector id="intersection/0003/e2det/w01/__es" lane="593766963_1" pos="0.00" length="7.39" freq="1.00" file="e2output.xml" friendlyPos="1"/>
    <e2Detector id="intersection/0004/e2det/e01/__w_" lane="436291064#1_1" pos="15.84" length="20.00" freq="1.00" file="e2output.xml" friendlyPos="1"/>
    <e2Detector id="intersection/0004/e2det/e02/__w_" lane="436291064#1_2" pos="15.84" length="20.00" freq="1.00" file="e2output.xml" friendlyPos="1"/>
    <e2Detector id="intersection/0004/e2det/e03/_s__" lane="436291064#1_3" pos="15.92" length="20.00" freq="1.00" file="e2output.xml" friendlyPos="1"/>
    <e2Detector id="intersection/0004/e2det/e04/_s__" lane="436291064#1_4" pos="15.84" length="20.00" freq="1.00" file="e2output.xml" friendlyPos="1"/>
    <e2Detector id="intersection/0004/e2det/n01/__sw" lane="6024091#5_1" pos="12.33" length="20.00" freq="1.00" file="e2output.xml" friendlyPos="1"/>
    <e2Detector id="intersection/0004/e2det/n02/__s_" lane="6024091#5_2" pos="12.33" length="20.00" freq="1.00" file="e2output.xml" friendlyPos="1"/>
    <e2Detector id="intersection/0005/e2det/e01/___n" lane="436291031_1" pos="7.30" length="20.00" freq="1.00" file="e2output.xml" friendlyPos="1"/>
    <e2Detector id="intersection/0005/e2det/e02/___n" lane="436291031_2" pos="7.30" length="20.00" freq="1.00" file="e2output.xml" friendlyPos="1"/>
    <e2Detector id="intersection/0005/e2det/e03/__wn" lane="436291031_3" pos="7.38" length="20.00" freq="1.00" file="e2output.xml" friendlyPos="1"/>
    <e2Detector id="intersection/0005/e2det/e04/__w_" lane="436291031_4" pos="7.39" length="20.00" freq="1.00" file="e2output.xml" friendlyPos="1"/>
    <e2Detector id="intersection/0005/e2det/s01/__n_" lane="436291010_1" pos="10.87" length="20.00" freq="1.00" file="e2output.xml" friendlyPos="1"/>
    <e2Detector id="intersection/0005/e2det/s02/__n_" lane="436291010_2" pos="10.87" length="20.00" freq="1.00" file="e2output.xml" friendlyPos="1"/>
    <e2Detector id="intersection/0005/e2det/s03/_wn_" lane="436291010_3" pos="10.87" length="20.00" freq="1.00" file="e2output.xml" friendlyPos="1"/>
    <e2Detector id="intersection/0005/e2det/s04/_w__" lane="436291010_4" pos="10.87" length="20.00" freq="1.00" file="e2output.xml" friendlyPos="1"/>
    <e2Detector id="intersection/0006/e2det/e01/__wn" lane="641705063#3_1" pos="2.77" length="20.00" freq="1.00" file="e2output.xml" friendlyPos="1"/>
    <e2Detector id="intersection/0006/e2det/e02/_sw_" lane="641705063#3_2" pos="2.77" length="20.00" freq="1.00" file="e2output.xml" friendlyPos="1"/>
    <e2Detector id="intersection/0006/e2det/n01/__sw" lane="419814433#4_1" pos="15.35" length="20.00" freq="1.00" file="e2output.xml" friendlyPos="1"/>
    <e2Detector id="intersection/0006/e2det/s01/_wn_" lane="-641705065_1" pos="88.10" length="20.00" freq="1.00" file="e2output.xml" friendlyPos="1"/>
    <e2Detector id="intersection/0007/e2det/e01/__wn" lane="641705063#1_1" pos="20.91" length="20.00" freq="1.00" file="e2output.xml" friendlyPos="1"/>
    <e2Detector id="intersection/0007/e2det/e02/__w_" lane="641705063#1_2" pos="20.91" length="20.00" freq="1.00" file="e2output.xml" friendlyPos="1"/>
    <e2Detector id="intersection/0007/e2det/s01/_wn_" lane="36054466#4_1" pos="9.38" length="20.00" freq="1.00" file="e2output.xml" friendlyPos="1"/>
    <e2Detector id="intersection/0008/e2det/e01/__w_" lane="89922370#5_1" pos="14.71" length="20.00" freq="1.00" file="e2output.xml" friendlyPos="1"/>
    <e2Detector id="intersection/0008/e2det/e02/_sw_" lane="89922370#5_2" pos="14.71" length="20.00" freq="1.00" file="e2output.xml" friendlyPos="1"/>
    <e2Detector id="intersection/0008/e2det/n01/___w" lane="436291018_1" pos="0.00" length="14.00" freq="1.00" file="e2output.xml" friendlyPos="1"/>
    <e2Detector id="intersection/0008/e2det/n02/___w" lane="436291018_2" pos="0.00" length="14.00" freq="1.00" file="e2output.xml" friendlyPos="1"/>
    <e2Detector id="intersection/0008/e2det/n03/__s_" lane="436291018_3" pos="0.04" length="14.00" freq="1.00" file="e2output.xml" friendlyPos="1"/>
    <e2Detector id="intersection/0008/e2det/n04/__s_" lane="436291018_4" pos="0.09" length="14.00" freq="1.00" file="e2output.xml" friendlyPos="1"/>
    <e2Detector id="intersection/0009/e2det/s01/___e" lane="436291013_1" pos="0.00" length="8.94" freq="1.00" file="e2output.xml" friendlyPos="1"/>
    <e2Detector id="intersection/0009/e2det/s02/__ne" lane="436291013_2" pos="0.00" length="8.94" freq="1.00" file="e2output.xml" friendlyPos="1"/>
    <e2Detector id="intersection/0009/e2det/s03/__n_" lane="436291013_3" pos="0.00" length="8.94" freq="1.00" file="e2output.xml" friendlyPos="1"/>
    <e2Detector id="intersection/0009/e2det/s04/__n_" lane="436291013_4" pos="0.02" length="9.00" freq="1.00" file="e2output.xml" friendlyPos="1"/>
    <e2Detector id="intersection/0009/e2det/w01/__e_" lane="642337373_1" pos="51.52" length="20.00" freq="1.00" file="e2output.xml" friendlyPos="1"/>
    <e2Detector id="intersection/0009/e2det/w02/_ne_" lane="642337373_2" pos="51.52" length="20.00" freq="1.00" file="e2output.xml" friendlyPos="1"/>
    <e2Detector id="intersection/0010/e2det/n01/_e__" lane="641705065_1" pos="88.10" length="20.00" freq="1.00" file="e2output.xml" friendlyPos="1"/>
    <e2Detector id="intersection/0010/e2det/n01/_es_" lane="641705065_1" pos="88.10" length="20.00" freq="1.00" file="e2output.xml" friendlyPos="1"/>
    <e2Detector id="intersection/0010/e2det/w01/__e_" lane="234953562_1" pos="43.90" length="20.00" freq="1.00" file="e2output.xml" friendlyPos="1"/>
    <e2Detector id="intersection/0010/e2det/w02/__es" lane="234953562_1" pos="43.90" length="20.00" freq="1.00" file="e2output.xml" friendlyPos="1"/>
    <e2Detector id="intersection/0010/e2det/w02/_ne_" lane="234953562_2" pos="43.90" length="20.00" freq="1.00" file="e2output.xml" friendlyPos="1"/>
    <e2Detector id="intersection/0010/e2det/w03/_ne_" lane="234953562_2" pos="43.90" length="20.00" freq="1.00" file="e2output.xml" friendlyPos="1"/>
    <e2Detector id="intersection/0011/e2det/s01/__ne" lane="89927838#3_1" pos="18.10" length="20.00" freq="1.00" file="e2output.xml" friendlyPos="1"/>
    <e2Detector id="intersection/0011/e2det/w01/__es" lane="634644489_1" pos="52.00" length="20.00" freq="1.00" file="e2output.xml" friendlyPos="1"/>
    <e2Detector id="intersection/0011/e2det/w02/_ne_" lane="634644489_2" pos="52.00" length="20.00" freq="1.00" file="e2output.xml" friendlyPos="1"/>
    <e2Detector id="intersection/0012/e2det/n01/__s_" lane="436291019_1" pos="4.05" length="20.00" freq="1.00" file="e2output.xml" friendlyPos="1"/>
    <e2Detector id="intersection/0012/e2det/n02/__s_" lane="436291019_2" pos="4.05" length="20.00" freq="1.00" file="e2output.xml" friendlyPos="1"/>
    <e2Detector id="intersection/0012/e2det/n03/_e__" lane="436291019_3" pos="4.13" length="20.00" freq="1.00" file="e2output.xml" friendlyPos="1"/>
    <e2Detector id="intersection/0012/e2det/n04/_e__" lane="436291019_4" pos="4.05" length="20.00" freq="1.00" file="e2output.xml" friendlyPos="1"/>
    <e2Detector id="intersection/0012/e2det/w01/__es" lane="278328405#0_1" pos="45.95" length="20.00" freq="1.00" file="e2output.xml" friendlyPos="1"/>
    <e2Detector id="intersection/0012/e2det/w02/__e_" lane="278328405#0_2" pos="45.95" length="20.00" freq="1.00" file="e2output.xml" friendlyPos="1"/>
    <e2Detector id="intersection/0013/e2det/s01/__n_" lane="573865733#0_1" pos="88.99" length="20.00" freq="1.00" file="e2output.xml" friendlyPos="1"/>
    <e2Detector id="intersection/0013/e2det/s02/__n_" lane="573865733#0_2" pos="88.99" length="20.00" freq="1.00" file="e2output.xml" friendlyPos="1"/>
    <e2Detector id="intersection/0013/e2det/s03/__n_" lane="573865733#0_3" pos="88.99" length="20.00" freq="1.00" file="e2output.xml" friendlyPos="1"/>
</additional>
