<?xml version="1.0" encoding="UTF-8"?>

<!-- generated on 06/08/20 13:08:33 by Eclipse SUMO duarouter Version 1.6.0
<configuration xmlns:xsi="http://www.w3.org/2001/XMLSchema-instance" xsi:noNamespaceSchemaLocation="http://sumo.dlr.de/xsd/duarouterConfiguration.xsd">

    <input>
        <net-file value="osm.net.xml"/>
        <route-files value="osm.bus.trips.xml"/>
    </input>

    <output>
        <output-file value="osm.bus.trips.xml.tmp"/>
        <write-trips value="true"/>
    </output>

    <time>
        <begin value="0"/>
        <end value="1800.0"/>
    </time>

    <report>
        <no-warnings value="true"/>
        <ignore-errors value="true"/>
        <no-step-log value="true"/>
    </report>

</configuration>
-->

<routes xmlns:xsi="http://www.w3.org/2001/XMLSchema-instance" xsi:noNamespaceSchemaLocation="http://sumo.dlr.de/xsd/routes_file.xsd">
    <vType id="bus_bus" vClass="bus"/>
    <trip id="bus0" type="bus_bus" depart="0.00" departLane="best" departSpeed="max" from="642337374#0" to="593766962#0"/>
    <trip id="bus1" type="bus_bus" depart="20.00" departLane="best" departSpeed="max" from="642337374#0" to="593766962#0"/>
    <trip id="bus2" type="bus_bus" depart="40.00" departLane="best" departSpeed="max" from="-5955850#2" to="593766962#0"/>
    <trip id="bus3" type="bus_bus" depart="60.00" departLane="best" departSpeed="max" from="89922370#0" to="642361032"/>
    <trip id="bus4" type="bus_bus" depart="80.00" departLane="best" departSpeed="max" from="89922370#0" to="642361032"/>
    <trip id="bus5" type="bus_bus" depart="100.00" departLane="best" departSpeed="max" from="-593766962#1" to="642361032"/>
    <trip id="bus7" type="bus_bus" depart="140.00" departLane="best" departSpeed="max" from="642337374#0" to="593766962#0"/>
    <trip id="bus9" type="bus_bus" depart="180.00" departLane="best" departSpeed="max" from="-5955850#2" to="436291029"/>
    <trip id="bus10" type="bus_bus" depart="200.00" departLane="best" departSpeed="max" from="89922370#0" to="5955850#2"/>
    <trip id="bus12" type="bus_bus" depart="240.00" departLane="best" departSpeed="max" from="642337374#0" to="593766962#0"/>
    <trip id="bus13" type="bus_bus" depart="260.00" departLane="best" departSpeed="max" from="-5955850#2" to="436291029"/>
    <trip id="bus14" type="bus_bus" depart="280.00" departLane="best" departSpeed="max" from="89922370#0" to="642361032"/>
    <trip id="bus15" type="bus_bus" depart="300.00" departLane="best" departSpeed="max" from="-593766962#1" to="5955850#2"/>
    <trip id="bus16" type="bus_bus" depart="320.00" departLane="best" departSpeed="max" from="-5955850#2" to="593766962#0"/>
    <trip id="bus18" type="bus_bus" depart="360.00" departLane="best" departSpeed="max" from="642337374#0" to="436291029"/>
    <trip id="bus19" type="bus_bus" depart="380.00" departLane="best" departSpeed="max" from="89922370#0" to="642361032"/>
    <trip id="bus21" type="bus_bus" depart="420.00" departLane="best" departSpeed="max" from="642337374#0" to="593766962#0"/>
    <trip id="bus23" type="bus_bus" depart="460.00" departLane="best" departSpeed="max" from="-593766962#1" to="642361032"/>
    <trip id="bus26" type="bus_bus" depart="520.00" departLane="best" departSpeed="max" from="-593766962#1" to="642361032"/>
    <trip id="bus27" type="bus_bus" depart="540.00" departLane="best" departSpeed="max" from="642337374#0" to="436291029"/>
    <trip id="bus28" type="bus_bus" depart="560.00" departLane="best" departSpeed="max" from="89922370#0" to="5955850#2"/>
    <trip id="bus29" type="bus_bus" depart="580.00" departLane="best" departSpeed="max" from="-593766962#1" to="642361032"/>
    <trip id="bus32" type="bus_bus" depart="640.00" departLane="best" departSpeed="max" from="-593766962#1" to="5955850#2"/>
    <trip id="bus34" type="bus_bus" depart="680.00" departLane="best" departSpeed="max" from="-5955850#2" to="593766962#0"/>
    <trip id="bus37" type="bus_bus" depart="740.00" departLane="best" departSpeed="max" from="-5955850#2" to="593766962#0"/>
    <trip id="bus39" type="bus_bus" depart="780.00" departLane="best" departSpeed="max" from="-593766962#1" to="5955850#2"/>
    <trip id="bus40" type="bus_bus" depart="800.00" departLane="best" departSpeed="max" from="642337374#0" to="593766962#0"/>
    <trip id="bus41" type="bus_bus" depart="820.00" departLane="best" departSpeed="max" from="89922370#0" to="642361032"/>
    <trip id="bus42" type="bus_bus" depart="840.00" departLane="best" departSpeed="max" from="-5955850#2" to="436291029"/>
    <trip id="bus45" type="bus_bus" depart="900.00" departLane="best" departSpeed="max" from="-5955850#2" to="436291029"/>
    <trip id="bus46" type="bus_bus" depart="920.00" departLane="best" departSpeed="max" from="-593766962#1" to="642361032"/>
    <trip id="bus48" type="bus_bus" depart="960.00" departLane="best" departSpeed="max" from="-5955850#2" to="436291029"/>
    <trip id="bus49" type="bus_bus" depart="980.00" departLane="best" departSpeed="max" from="-593766962#1" to="642361032"/>
    <trip id="bus50" type="bus_bus" depart="1000.00" departLane="best" departSpeed="max" from="-593766962#1" to="642361032"/>
    <trip id="bus51" type="bus_bus" depart="1020.00" departLane="best" departSpeed="max" from="-593766962#1" to="642361032"/>
    <trip id="bus52" type="bus_bus" depart="1040.00" departLane="best" departSpeed="max" from="-593766962#1" to="642361032"/>
    <trip id="bus54" type="bus_bus" depart="1080.00" departLane="best" departSpeed="max" from="-593766962#1" to="5955850#2"/>
    <trip id="bus55" type="bus_bus" depart="1100.00" departLane="best" departSpeed="max" from="-5955850#2" to="593766962#0"/>
    <trip id="bus56" type="bus_bus" depart="1120.00" departLane="best" departSpeed="max" from="642337374#0" to="436291029"/>
    <trip id="bus58" type="bus_bus" depart="1160.00" departLane="best" departSpeed="max" from="642337374#0" to="436291029"/>
    <trip id="bus59" type="bus_bus" depart="1180.00" departLane="best" departSpeed="max" from="642337374#0" to="593766962#0"/>
    <trip id="bus60" type="bus_bus" depart="1200.00" departLane="best" departSpeed="max" from="642337374#0" to="436291029"/>
    <trip id="bus61" type="bus_bus" depart="1220.00" departLane="best" departSpeed="max" from="-593766962#1" to="642361032"/>
    <trip id="bus62" type="bus_bus" depart="1240.00" departLane="best" departSpeed="max" from="-593766962#1" to="642361032"/>
    <trip id="bus63" type="bus_bus" depart="1260.00" departLane="best" departSpeed="max" from="89922370#0" to="642361032"/>
    <trip id="bus66" type="bus_bus" depart="1320.00" departLane="best" departSpeed="max" from="642337374#0" to="436291029"/>
    <trip id="bus67" type="bus_bus" depart="1340.00" departLane="best" departSpeed="max" from="-5955850#2" to="436291029"/>
    <trip id="bus69" type="bus_bus" depart="1380.00" departLane="best" departSpeed="max" from="89922370#0" to="5955850#2"/>
    <trip id="bus71" type="bus_bus" depart="1420.00" departLane="best" departSpeed="max" from="-5955850#2" to="436291029"/>
    <trip id="bus72" type="bus_bus" depart="1440.00" departLane="best" departSpeed="max" from="-593766962#1" to="642361032"/>
    <trip id="bus73" type="bus_bus" depart="1460.00" departLane="best" departSpeed="max" from="-5955850#2" to="593766962#0"/>
    <trip id="bus75" type="bus_bus" depart="1500.00" departLane="best" departSpeed="max" from="-5955850#2" to="436291029"/>
    <trip id="bus76" type="bus_bus" depart="1520.00" departLane="best" departSpeed="max" from="89922370#0" to="5955850#2"/>
    <trip id="bus77" type="bus_bus" depart="1540.00" departLane="best" departSpeed="max" from="-5955850#2" to="593766962#0"/>
    <trip id="bus78" type="bus_bus" depart="1560.00" departLane="best" departSpeed="max" from="-593766962#1" to="5955850#2"/>
    <trip id="bus79" type="bus_bus" depart="1580.00" departLane="best" departSpeed="max" from="89922370#0" to="5955850#2"/>
    <trip id="bus80" type="bus_bus" depart="1600.00" departLane="best" departSpeed="max" from="-5955850#2" to="593766962#0"/>
    <trip id="bus81" type="bus_bus" depart="1620.00" departLane="best" departSpeed="max" from="89922370#0" to="5955850#2"/>
    <trip id="bus82" type="bus_bus" depart="1640.00" departLane="best" departSpeed="max" from="-593766962#1" to="5955850#2"/>
    <trip id="bus83" type="bus_bus" depart="1660.00" departLane="best" departSpeed="max" from="-593766962#1" to="5955850#2"/>
    <trip id="bus85" type="bus_bus" depart="1700.00" departLane="best" departSpeed="max" from="-5955850#2" to="436291029"/>
    <trip id="bus86" type="bus_bus" depart="1720.00" departLane="best" departSpeed="max" from="89922370#0" to="5955850#2"/>
    <trip id="bus87" type="bus_bus" depart="1740.00" departLane="best" departSpeed="max" from="-5955850#2" to="436291029"/>
    <trip id="bus88" type="bus_bus" depart="1760.00" departLane="best" departSpeed="max" from="642337374#0" to="436291029"/>
    <trip id="bus89" type="bus_bus" depart="1780.00" departLane="best" departSpeed="max" from="-593766962#1" to="5955850#2"/>
</routes>
