<?xml version="1.0" encoding="UTF-8"?>

<!-- generated on mar 02 jun 2020 01:26:14 -04 by Eclipse SUMO netedit Version 1.6.0
<configuration xmlns:xsi="http://www.w3.org/2001/XMLSchema-instance" xsi:noNamespaceSchemaLocation="http://sumo.dlr.de/xsd/netconvertConfiguration.xsd">

    <input>
        <sumo-net-file value="osm.net.xml"/>
    </input>

    <output>
        <output-file value="osm.net.xml"/>
        <output.street-names value="true"/>
    </output>

    <processing>
        <geometry.min-radius.fix.railways value="false"/>
        <geometry.max-grade.fix value="false"/>
        <offset.disable-normalization value="true"/>
        <lefthand value="false"/>
    </processing>

    <junctions>
        <no-internal-links value="false"/>
        <no-turnarounds value="true"/>
        <junctions.corner-detail value="5"/>
        <junctions.limit-turn-speed value="5.5"/>
        <rectangular-lane-cut value="false"/>
    </junctions>

    <pedestrian>
        <walkingareas value="true"/>
    </pedestrian>

    <report>
        <aggregate-warnings value="5"/>
    </report>

</configuration>
-->

<net version="1.6" junctionCornerDetail="5" walkingareas="true" limitTurnSpeed="5.50" xmlns:xsi="http://www.w3.org/2001/XMLSchema-instance" xsi:noNamespaceSchemaLocation="http://sumo.dlr.de/xsd/net_file.xsd">

    <location netOffset="-483980.02,-3619901.67" convBoundary="452.49,103.92,1062.41,602.54" origBoundary="-117.170955,32.716778,-117.156568,32.723050" projParameter="+proj=utm +zone=11 +ellps=WGS84 +datum=WGS84 +units=m +no_defs"/>

    <type id="cycleway.lane" allow="bicycle" bikeLaneWidth="1.00"/>
    <type id="cycleway.opposite_lane" allow="bicycle" bikeLaneWidth="1.00"/>
    <type id="cycleway.opposite_track" allow="bicycle" bikeLaneWidth="1.50"/>
    <type id="cycleway.track" allow="bicycle" bikeLaneWidth="1.50"/>
    <type id="highway.bridleway" priority="1" numLanes="1" speed="2.78" allow="pedestrian" oneway="1" width="2.00"/>
    <type id="highway.bus_guideway" priority="1" numLanes="1" speed="13.89" allow="bus" oneway="1"/>
    <type id="highway.cycleway" priority="1" numLanes="1" speed="8.33" allow="bicycle" oneway="0" width="1.00"/>
    <type id="highway.footway" priority="1" numLanes="1" speed="2.78" allow="pedestrian" oneway="1" width="2.00"/>
    <type id="highway.ford" priority="1" numLanes="1" speed="2.78" allow="army" oneway="0"/>
    <type id="highway.living_street" priority="2" numLanes="1" speed="2.78" disallow="tram rail_urban rail rail_electric ship" oneway="0"/>
    <type id="highway.motorway" priority="14" numLanes="2" speed="27.78" allow="private emergency authority army vip passenger hov taxi bus coach delivery truck trailer motorcycle evehicle custom1 custom2" oneway="1"/>
    <type id="highway.motorway_link" priority="9" numLanes="1" speed="16.67" allow="private emergency authority army vip passenger hov taxi bus coach delivery truck trailer motorcycle evehicle custom1 custom2" oneway="1"/>
    <type id="highway.path" priority="1" numLanes="1" speed="2.78" allow="pedestrian bicycle" oneway="1" width="2.00"/>
    <type id="highway.pedestrian" priority="1" numLanes="1" speed="2.78" allow="pedestrian" oneway="1" width="2.00"/>
    <type id="highway.primary" priority="12" numLanes="2" speed="13.89" disallow="pedestrian tram rail_urban rail rail_electric ship" oneway="0" sidewalkWidth="3.00"/>
    <type id="highway.primary_link" priority="7" numLanes="1" speed="13.89" disallow="pedestrian tram rail_urban rail rail_electric ship" oneway="0" sidewalkWidth="3.00"/>
    <type id="highway.raceway" priority="15" numLanes="2" speed="83.33" allow="vip" oneway="0"/>
    <type id="highway.residential" priority="3" numLanes="1" speed="13.89" disallow="pedestrian tram rail_urban rail rail_electric ship" oneway="0" sidewalkWidth="2.00"/>
    <type id="highway.secondary" priority="11" numLanes="2" speed="13.89" disallow="pedestrian tram rail_urban rail rail_electric ship" oneway="0" sidewalkWidth="3.00"/>
    <type id="highway.secondary_link" priority="6" numLanes="1" speed="13.89" disallow="pedestrian tram rail_urban rail rail_electric ship" oneway="0" sidewalkWidth="3.00"/>
    <type id="highway.service" priority="1" numLanes="1" speed="5.56" allow="pedestrian delivery bicycle" oneway="0"/>
    <type id="highway.stairs" priority="1" numLanes="1" speed="1.39" allow="pedestrian" oneway="1" width="2.00"/>
    <type id="highway.step" priority="1" numLanes="1" speed="1.39" allow="pedestrian" oneway="1" width="2.00"/>
    <type id="highway.steps" priority="1" numLanes="1" speed="1.39" allow="pedestrian" oneway="1" width="2.00"/>
    <type id="highway.tertiary" priority="10" numLanes="1" speed="13.89" disallow="pedestrian tram rail_urban rail rail_electric ship" oneway="0" sidewalkWidth="3.00"/>
    <type id="highway.tertiary_link" priority="5" numLanes="1" speed="13.89" disallow="pedestrian tram rail_urban rail rail_electric ship" oneway="0" sidewalkWidth="2.00"/>
    <type id="highway.track" priority="1" numLanes="1" speed="5.56" disallow="tram rail_urban rail rail_electric ship" oneway="0"/>
    <type id="highway.trunk" priority="13" numLanes="2" speed="13.89" disallow="pedestrian bicycle tram rail_urban rail rail_electric ship" oneway="0"/>
    <type id="highway.trunk_link" priority="8" numLanes="1" speed="13.89" disallow="pedestrian bicycle tram rail_urban rail rail_electric ship" oneway="0"/>
    <type id="highway.unclassified" priority="4" numLanes="1" speed="13.89" disallow="pedestrian tram rail_urban rail rail_electric ship" oneway="0" sidewalkWidth="2.00"/>
    <type id="highway.unsurfaced" priority="1" numLanes="1" speed="8.33" disallow="tram rail_urban rail rail_electric ship" oneway="0"/>
    <type id="railway.light_rail" priority="19" numLanes="1" speed="27.78" allow="rail_urban" oneway="1"/>
    <type id="railway.preserved" priority="16" numLanes="1" speed="27.78" allow="rail" oneway="1"/>
    <type id="railway.rail" priority="20" numLanes="1" speed="83.33" allow="rail rail_electric" oneway="1"/>
    <type id="railway.subway" priority="18" numLanes="1" speed="27.78" allow="rail_urban" oneway="1"/>
    <type id="railway.tram" priority="17" numLanes="1" speed="13.89" allow="tram" oneway="1"/>

    <edge id=":1945592456_0" function="internal">
        <lane id=":1945592456_0_0" index="0" allow="pedestrian delivery bicycle" speed="3.65" length="4.67" shape="999.73,306.05 1000.95,306.83 1001.36,307.62 1000.97,308.43 999.79,309.25"/>
    </edge>
    <edge id=":1952180680_0" function="internal">
        <lane id=":1952180680_0_0" index="0" allow="delivery bicycle" speed="6.04" length="7.60" shape="914.79,172.81 917.48,172.62 919.40,172.04 920.55,171.08 920.95,169.74"/>
    </edge>
    <edge id=":1952180680_1" function="internal">
        <lane id=":1952180680_1_0" index="0" allow="delivery bicycle" speed="6.01" length="7.60" shape="920.89,179.14 920.52,177.77 919.38,176.79 917.47,176.21 914.80,176.01"/>
    </edge>
    <edge id=":1952180680_2" function="internal">
        <lane id=":1952180680_2_0" index="0" disallow="pedestrian tram rail_urban rail rail_electric rail_fast ship" speed="13.89" length="9.41" shape="920.89,179.14 920.95,169.74"/>
        <lane id=":1952180680_2_1" index="1" disallow="pedestrian tram rail_urban rail rail_electric rail_fast ship" speed="13.89" length="9.41" shape="924.09,179.16 924.15,169.75"/>
    </edge>
    <edge id=":1952180680_w0" function="walkingarea">
        <lane id=":1952180680_w0_0" index="0" allow="pedestrian" speed="1.00" length="5.87" width="3.20" shape="919.35,169.73 916.35,169.71 914.79,171.21 914.79,174.41 914.79,174.41 914.80,177.61 916.29,179.11 919.29,179.13"/>
    </edge>
    <edge id=":1952180685_0" function="internal">
        <lane id=":1952180685_0_0" index="0" allow="delivery bicycle" speed="6.04" length="7.62" shape="990.49,353.06 990.27,350.37 989.67,348.45 988.70,347.31 987.35,346.93"/>
    </edge>
    <edge id=":1952180685_1" function="internal">
        <lane id=":1952180685_1_0" index="0" allow="delivery bicycle" speed="6.01" length="7.60" shape="996.78,346.83 995.42,347.24 994.46,348.39 993.92,350.31 993.78,352.99"/>
    </edge>
    <edge id=":1952180685_2" function="internal">
        <lane id=":1952180685_2_0" index="0" disallow="pedestrian tram rail_urban rail rail_electric rail_fast ship" speed="13.89" length="9.42" shape="996.78,346.83 987.35,346.93"/>
        <lane id=":1952180685_2_1" index="1" disallow="pedestrian tram rail_urban rail rail_electric rail_fast ship" speed="13.89" length="9.42" shape="996.74,343.63 987.33,343.73"/>
    </edge>
    <edge id=":1952180685_w0" function="walkingarea">
        <lane id=":1952180685_w0_0" index="0" allow="pedestrian" speed="1.00" length="5.92" width="3.20" shape="987.36,348.53 987.38,351.53 988.89,353.08 992.09,353.04 992.18,353.02 995.38,352.95 996.85,351.43 996.81,348.43"/>
    </edge>
    <edge id=":2654205181_0" function="internal">
        <lane id=":2654205181_0_0" index="0" disallow="pedestrian tram rail_urban rail rail_electric rail_fast ship" speed="3.65" length="4.67" shape="752.17,600.25 751.35,601.44 750.55,601.83 749.75,601.42 748.97,600.21"/>
    </edge>
    <edge id=":2654205181_w0" function="walkingarea">
        <lane id=":2654205181_w0_0" index="0" allow="pedestrian" speed="1.00" length="9.40" width="3.00" shape="747.37,600.18 744.37,600.14 756.77,600.32 753.77,600.28"/>
    </edge>
    <edge id=":4341675279_0" function="internal">
        <lane id=":4341675279_0_0" index="0" disallow="pedestrian tram rail_urban rail rail_electric rail_fast ship" speed="13.89" length="8.21" shape="670.87,202.26 671.11,204.66 671.65,206.26 672.19,207.87 672.43,210.27"/>
        <lane id=":4341675279_0_1" index="1" disallow="pedestrian tram rail_urban rail rail_electric rail_fast ship" speed="13.89" length="8.21" shape="667.67,202.24 667.91,204.64 668.45,206.25 668.99,207.85 669.23,210.25"/>
        <lane id=":4341675279_0_2" index="2" disallow="pedestrian tram rail_urban rail rail_electric rail_fast ship" speed="13.89" length="8.21" shape="664.47,202.22 664.71,204.62 665.25,206.23 665.79,207.84 666.03,210.24"/>
        <lane id=":4341675279_0_3" index="3" disallow="pedestrian tram rail_urban rail rail_electric rail_fast ship" speed="13.89" length="8.21" shape="664.47,202.22 664.21,204.62 663.65,206.22 663.09,207.82 662.83,210.22"/>
    </edge>
    <edge id=":4341675279_w0" function="walkingarea">
        <lane id=":4341675279_w0_0" index="0" allow="pedestrian" speed="1.00" length="8.15" width="3.00" shape="674.03,210.27 677.03,210.29 675.47,202.28 672.47,202.27 672.58,203.99 672.87,205.25 673.25,206.27 673.63,207.29 673.92,208.55"/>
    </edge>
    <edge id=":4341675280_0" function="internal">
        <lane id=":4341675280_0_0" index="0" disallow="pedestrian tram rail_urban rail rail_electric rail_fast ship" speed="13.89" length="8.41" shape="984.23,227.40 986.68,226.93 988.21,225.84 989.75,224.74 992.20,224.23"/>
        <lane id=":4341675280_0_1" index="1" disallow="pedestrian tram rail_urban rail rail_electric rail_fast ship" speed="13.89" length="8.41" shape="984.23,227.40 992.21,227.43"/>
        <lane id=":4341675280_0_2" index="2" disallow="pedestrian tram rail_urban rail rail_electric rail_fast ship" speed="13.89" length="8.41" shape="984.19,230.60 992.23,230.63"/>
        <lane id=":4341675280_0_3" index="3" disallow="pedestrian tram rail_urban rail rail_electric rail_fast ship" speed="13.89" length="8.41" shape="984.19,230.60 986.67,231.13 988.22,232.24 989.76,233.34 992.24,233.83"/>
    </edge>
    <edge id=":4341675280_w0" function="walkingarea">
        <lane id=":4341675280_w0_0" index="0" allow="pedestrian" speed="1.00" length="8.53" width="3.00" shape="992.19,222.63 992.18,219.63 984.28,222.80 984.25,225.80 986.02,225.59 987.26,225.01 988.22,224.24 989.18,223.47 990.42,222.88"/>
    </edge>
    <edge id=":4341675282_0" function="internal">
        <lane id=":4341675282_0_0" index="0" disallow="pedestrian tram rail_urban rail rail_electric rail_fast ship" speed="13.89" length="8.41" shape="920.31,287.18 919.85,284.72 918.77,283.17 917.68,281.63 917.19,279.17"/>
        <lane id=":4341675282_0_1" index="1" disallow="pedestrian tram rail_urban rail rail_electric rail_fast ship" speed="13.89" length="8.41" shape="920.31,287.18 920.39,279.18"/>
        <lane id=":4341675282_0_2" index="2" disallow="pedestrian tram rail_urban rail rail_electric rail_fast ship" speed="13.89" length="8.41" shape="923.51,287.22 923.59,279.19"/>
        <lane id=":4341675282_0_3" index="3" disallow="pedestrian tram rail_urban rail rail_electric rail_fast ship" speed="13.89" length="8.41" shape="923.51,287.22 924.05,284.75 925.17,283.21 926.28,281.68 926.79,279.21"/>
    </edge>
    <edge id=":4341675282_w0" function="walkingarea">
        <lane id=":4341675282_w0_0" index="0" allow="pedestrian" speed="1.00" length="8.56" width="3.00" shape="915.59,279.16 912.59,279.15 915.71,287.11 918.71,287.15 918.50,285.37 917.93,284.13 917.17,283.16 916.40,282.19 915.82,280.95"/>
    </edge>
    <edge id=":4341675284_0" function="internal">
        <lane id=":4341675284_0_0" index="0" disallow="pedestrian tram rail_urban rail rail_electric rail_fast ship" speed="13.89" length="8.21" shape="669.63,297.99 669.84,300.39 670.37,302.00 670.89,303.61 671.11,306.01"/>
        <lane id=":4341675284_0_1" index="1" disallow="pedestrian tram rail_urban rail rail_electric rail_fast ship" speed="13.89" length="8.21" shape="669.63,297.99 669.34,300.38 668.77,301.97 668.19,303.57 667.91,305.96"/>
        <lane id=":4341675284_0_2" index="2" disallow="pedestrian tram rail_urban rail rail_electric rail_fast ship" speed="13.89" length="8.21" shape="666.43,297.94 666.15,300.33 665.57,301.92 664.99,303.52 664.71,305.91"/>
        <lane id=":4341675284_0_3" index="3" disallow="pedestrian tram rail_urban rail rail_electric rail_fast ship" speed="13.89" length="8.21" shape="663.23,297.89 662.95,300.28 662.37,301.87 661.80,303.47 661.51,305.86"/>
    </edge>
    <edge id=":4341675284_w0" function="walkingarea">
        <lane id=":4341675284_w0_0" index="0" allow="pedestrian" speed="1.00" length="8.16" width="3.00" shape="672.71,306.04 675.71,306.08 674.23,298.06 671.23,298.01 671.32,299.74 671.60,301.00 671.97,302.02 672.34,303.05 672.61,304.31"/>
    </edge>
    <edge id=":4341675287_0" function="internal">
        <lane id=":4341675287_0_0" index="0" disallow="pedestrian tram rail_urban rail rail_electric rail_fast ship" speed="13.89" length="8.40" shape="919.63,375.58 919.15,373.11 918.06,371.57 916.97,370.02 916.49,367.56"/>
        <lane id=":4341675287_0_1" index="1" disallow="pedestrian tram rail_urban rail rail_electric rail_fast ship" speed="13.89" length="8.40" shape="919.63,375.58 919.69,367.58"/>
        <lane id=":4341675287_0_2" index="2" disallow="pedestrian tram rail_urban rail rail_electric rail_fast ship" speed="13.89" length="8.40" shape="922.83,375.60 922.89,367.60"/>
        <lane id=":4341675287_0_3" index="3" disallow="pedestrian tram rail_urban rail rail_electric rail_fast ship" speed="13.89" length="8.40" shape="922.83,375.60 923.35,373.14 924.46,371.61 925.57,370.08 926.09,367.62"/>
    </edge>
    <edge id=":4341675287_w0" function="walkingarea">
        <lane id=":4341675287_w0_0" index="0" allow="pedestrian" speed="1.00" length="8.62" width="3.00" shape="914.89,367.55 911.89,367.53 915.03,375.55 918.03,375.57 917.81,373.78 917.22,372.53 916.46,371.56 915.70,370.58 915.11,369.34"/>
    </edge>
    <edge id=":49047359_0" function="internal">
        <lane id=":49047359_0_0" index="0" disallow="pedestrian tram rail_urban rail rail_electric rail_fast ship" speed="13.89" length="12.39" shape="585.22,460.54 572.83,460.58"/>
    </edge>
    <edge id=":49047359_1" function="internal">
        <lane id=":49047359_1_0" index="0" disallow="pedestrian tram rail_urban rail rail_electric rail_fast ship" speed="6.95" length="2.69" shape="585.22,460.54 583.81,459.96 583.24,458.95"/>
    </edge>
    <edge id=":49047359_4" function="internal">
        <lane id=":49047359_4_0" index="0" disallow="pedestrian tram rail_urban rail rail_electric rail_fast ship" speed="6.95" length="7.89" shape="583.24,458.95 582.82,458.21 582.26,455.30 582.12,451.22"/>
    </edge>
    <edge id=":49047359_2" function="internal">
        <lane id=":49047359_2_0" index="0" disallow="pedestrian tram rail_urban rail rail_electric rail_fast ship" speed="6.83" length="5.67" shape="572.82,457.38 575.45,456.98 577.35,455.82 577.75,455.15"/>
    </edge>
    <edge id=":49047359_3" function="internal">
        <lane id=":49047359_3_0" index="0" disallow="pedestrian tram rail_urban rail rail_electric rail_fast ship" speed="13.89" length="12.39" shape="572.82,457.38 585.21,457.34"/>
    </edge>
    <edge id=":49047359_5" function="internal">
        <lane id=":49047359_5_0" index="0" disallow="pedestrian tram rail_urban rail rail_electric rail_fast ship" speed="6.83" length="4.22" shape="577.75,455.15 578.50,453.88 578.92,451.17"/>
    </edge>
    <edge id=":49047359_c0" function="crossing" crossingEdges="-5955850#0 5955850#0">
        <lane id=":49047359_c0_0" index="0" allow="pedestrian" speed="1.00" length="6.40" width="4.00" shape="583.21,455.74 583.22,462.14"/>
    </edge>
    <edge id=":49047359_c1" function="crossing" crossingEdges="6024091#2">
        <lane id=":49047359_c1_0" index="0" allow="pedestrian" speed="1.00" length="6.40" width="4.00" shape="577.29,453.14 583.69,453.24"/>
    </edge>
    <edge id=":49047359_c2" function="crossing" crossingEdges="5955850#1 -5955850#1">
        <lane id=":49047359_c2_0" index="0" allow="pedestrian" speed="1.00" length="6.40" width="4.00" shape="574.84,462.17 574.81,455.77"/>
    </edge>
    <edge id=":49047359_w0" function="walkingarea">
        <lane id=":49047359_w0_0" index="0" allow="pedestrian" speed="1.00" length="7.79" width="4.00" shape="576.84,462.16 572.84,462.18 572.85,465.18 585.23,465.14 585.22,462.14 581.22,462.15"/>
    </edge>
    <edge id=":49047359_w1" function="walkingarea">
        <lane id=":49047359_w1_0" index="0" allow="pedestrian" speed="1.00" length="2.29" width="4.00" shape="585.21,455.74 585.20,452.74 583.72,451.24 583.74,452.62 583.86,453.74 584.06,454.62 584.35,455.24 584.73,455.62"/>
    </edge>
    <edge id=":49047359_w2" function="walkingarea">
        <lane id=":49047359_w2_0" index="0" allow="pedestrian" speed="1.00" length="3.73" width="4.00" shape="577.32,451.14 574.32,451.09 572.80,452.78 572.81,455.78 574.17,455.65 575.28,455.26 576.16,454.61 576.79,453.71 577.18,452.55"/>
    </edge>
    <edge id=":49047367_w0" function="walkingarea">
        <lane id=":49047367_w0_0" index="0" allow="pedestrian" speed="1.00" length="9.40" width="3.00" shape="452.50,455.55 452.51,452.55 452.47,464.95 452.48,461.95"/>
    </edge>
    <edge id=":49080928_0" function="internal">
        <lane id=":49080928_0_0" index="0" disallow="pedestrian tram rail_urban rail rail_electric rail_fast ship" speed="3.65" length="4.67" shape="835.29,104.78 836.08,103.57 836.87,103.16 837.68,103.55 838.49,104.74"/>
    </edge>
    <edge id=":49080928_w0" function="walkingarea">
        <lane id=":49080928_w0_0" index="0" allow="pedestrian" speed="1.00" length="9.40" width="3.00" shape="840.09,104.72 843.09,104.69 830.69,104.83 833.69,104.80"/>
    </edge>
    <edge id=":49080931_0" function="internal">
        <lane id=":49080931_0_0" index="0" disallow="pedestrian tram rail_urban rail rail_electric rail_fast ship" speed="6.80" length="5.62" shape="842.11,461.07 839.45,461.44 837.53,462.58 837.16,463.18"/>
    </edge>
    <edge id=":49080931_1" function="internal">
        <lane id=":49080931_1_0" index="0" disallow="pedestrian tram rail_urban rail rail_electric rail_fast ship" speed="13.89" length="9.23" shape="842.11,461.07 832.88,461.04"/>
    </edge>
    <edge id=":49080931_7" function="internal">
        <lane id=":49080931_7_0" index="0" disallow="pedestrian tram rail_urban rail rail_electric rail_fast ship" speed="6.80" length="4.24" shape="837.16,463.18 836.36,464.49 835.94,467.16"/>
    </edge>
    <edge id=":49080931_2" function="internal">
        <lane id=":49080931_2_0" index="0" disallow="pedestrian tram rail_urban rail rail_electric rail_fast ship" speed="6.78" length="9.84" shape="836.03,451.74 836.42,454.41 837.56,456.33 839.46,457.48 842.12,457.87"/>
    </edge>
    <edge id=":49080931_3" function="internal">
        <lane id=":49080931_3_0" index="0" disallow="pedestrian tram rail_urban rail rail_electric rail_fast ship" speed="13.89" length="15.43" shape="836.03,451.74 835.94,467.16"/>
    </edge>
    <edge id=":49080931_4" function="internal">
        <lane id=":49080931_4_0" index="0" disallow="pedestrian tram rail_urban rail rail_electric rail_fast ship" speed="6.96" length="10.54" shape="836.03,451.74 835.84,455.81 835.26,458.72 834.27,460.46 832.88,461.04"/>
    </edge>
    <edge id=":49080931_5" function="internal">
        <lane id=":49080931_5_0" index="0" disallow="pedestrian tram rail_urban rail rail_electric rail_fast ship" speed="13.89" length="9.22" shape="832.90,457.84 842.12,457.87"/>
    </edge>
    <edge id=":49080931_6" function="internal">
        <lane id=":49080931_6_0" index="0" disallow="pedestrian tram rail_urban rail rail_electric rail_fast ship" speed="6.96" length="2.66" shape="832.90,457.84 834.28,458.42 834.84,459.44"/>
    </edge>
    <edge id=":49080931_8" function="internal">
        <lane id=":49080931_8_0" index="0" disallow="pedestrian tram rail_urban rail rail_electric rail_fast ship" speed="6.96" length="7.88" shape="834.84,459.44 835.25,460.18 835.80,463.09 835.94,467.16"/>
    </edge>
    <edge id=":49080931_c0" function="crossing" crossingEdges="5962129#4 -5962129#4">
        <lane id=":49080931_c0_0" index="0" allow="pedestrian" speed="1.00" length="6.40" width="4.00" shape="840.13,456.26 840.11,462.66"/>
    </edge>
    <edge id=":49080931_c1" function="crossing" crossingEdges="36054466#9">
        <lane id=":49080931_c1_0" index="0" allow="pedestrian" speed="1.00" length="3.20" width="4.00" shape="834.44,453.74 837.64,453.74"/>
    </edge>
    <edge id=":49080931_c2" function="crossing" crossingEdges="-5962129#3 5962129#3">
        <lane id=":49080931_c2_0" index="0" allow="pedestrian" speed="1.00" length="6.40" width="4.00" shape="834.88,462.65 834.91,456.25"/>
    </edge>
    <edge id=":49080931_c3" function="crossing" crossingEdges="36054466#10">
        <lane id=":49080931_c3_0" index="0" allow="pedestrian" speed="1.00" length="3.20" width="4.00" shape="837.57,465.19 834.37,465.14"/>
    </edge>
    <edge id=":49080931_w0" function="walkingarea">
        <lane id=":49080931_w0_0" index="0" allow="pedestrian" speed="1.00" length="3.70" width="4.00" shape="837.54,467.19 840.54,467.23 842.10,465.67 842.11,462.67 840.73,462.79 839.60,463.17 838.72,463.79 838.08,464.67 837.69,465.80"/>
    </edge>
    <edge id=":49080931_w1" function="walkingarea">
        <lane id=":49080931_w1_0" index="0" allow="pedestrian" speed="1.00" length="3.68" width="4.00" shape="842.13,456.27 842.14,453.27 840.63,451.73 837.63,451.74 837.76,453.12 838.14,454.25 838.76,455.13 839.64,455.76 840.76,456.14"/>
    </edge>
    <edge id=":49080931_w2" function="walkingarea">
        <lane id=":49080931_w2_0" index="0" allow="pedestrian" speed="1.00" length="2.29" width="4.00" shape="834.43,451.74 832.92,453.24 832.91,456.24 833.37,456.11 833.76,455.74 834.06,455.12 834.27,454.24 834.39,453.12"/>
    </edge>
    <edge id=":49080931_w3" function="walkingarea">
        <lane id=":49080931_w3_0" index="0" allow="pedestrian" speed="1.00" length="2.29" width="4.00" shape="832.88,462.64 832.87,465.64 834.34,467.14 834.32,465.77 834.21,464.64 834.01,463.77 833.72,463.14 833.34,462.76"/>
    </edge>
    <edge id=":49110700_0" function="internal">
        <lane id=":49110700_0_0" index="0" disallow="pedestrian tram rail_urban rail rail_electric rail_fast ship" speed="6.85" length="9.99" shape="749.45,466.91 749.04,464.19 747.87,462.24 745.94,461.07 743.26,460.67"/>
    </edge>
    <edge id=":49110700_1" function="internal">
        <lane id=":49110700_1_0" index="0" disallow="pedestrian tram rail_urban rail rail_electric rail_fast ship" speed="13.89" length="15.53" shape="749.45,466.91 749.40,451.39"/>
    </edge>
    <edge id=":49110700_2" function="internal">
        <lane id=":49110700_2_0" index="0" disallow="pedestrian tram rail_urban rail rail_electric rail_fast ship" speed="8.20" length="15.13" shape="749.45,466.91 749.99,462.80 751.72,459.86 754.65,458.10 758.76,457.53"/>
    </edge>
    <edge id=":49110700_3" function="internal">
        <lane id=":49110700_3_0" index="0" disallow="pedestrian tram rail_urban rail rail_electric rail_fast ship" speed="6.75" length="5.66" shape="758.75,460.73 756.05,461.11 754.14,462.26 753.78,462.86"/>
    </edge>
    <edge id=":49110700_4" function="internal">
        <lane id=":49110700_4_0" index="0" disallow="pedestrian tram rail_urban rail rail_electric rail_fast ship" speed="13.89" length="15.49" shape="758.75,460.73 743.26,460.67"/>
    </edge>
    <edge id=":49110700_5" function="internal">
        <lane id=":49110700_5_0" index="0" disallow="pedestrian tram rail_urban rail rail_electric rail_fast ship" speed="8.23" length="6.15" shape="758.75,460.73 754.64,460.13 752.93,459.11"/>
    </edge>
    <edge id=":49110700_12" function="internal">
        <lane id=":49110700_12_0" index="0" disallow="pedestrian tram rail_urban rail rail_electric rail_fast ship" speed="6.75" length="4.25" shape="753.78,462.86 753.00,464.18 752.65,466.88"/>
    </edge>
    <edge id=":49110700_13" function="internal">
        <lane id=":49110700_13_0" index="0" disallow="pedestrian tram rail_urban rail rail_electric rail_fast ship" speed="8.23" length="8.94" shape="752.93,459.11 751.71,458.38 749.97,455.46 749.40,451.39"/>
    </edge>
    <edge id=":49110700_6" function="internal">
        <lane id=":49110700_6_0" index="0" disallow="pedestrian tram rail_urban rail rail_electric rail_fast ship" speed="6.78" length="9.92" shape="752.60,451.40 752.97,454.07 754.12,455.99 756.05,457.14 758.76,457.53"/>
    </edge>
    <edge id=":49110700_7" function="internal">
        <lane id=":49110700_7_0" index="0" disallow="pedestrian tram rail_urban rail rail_electric rail_fast ship" speed="13.89" length="15.48" shape="752.60,451.40 752.65,466.88"/>
    </edge>
    <edge id=":49110700_8" function="internal">
        <lane id=":49110700_8_0" index="0" disallow="pedestrian tram rail_urban rail rail_electric rail_fast ship" speed="8.21" length="15.00" shape="752.60,451.40 752.00,455.47 750.24,458.37 747.33,460.10 743.26,460.67"/>
    </edge>
    <edge id=":49110700_9" function="internal">
        <lane id=":49110700_9_0" index="0" disallow="pedestrian tram rail_urban rail rail_electric rail_fast ship" speed="6.77" length="5.60" shape="743.27,457.47 745.94,457.10 747.85,455.96 748.20,455.38"/>
    </edge>
    <edge id=":49110700_10" function="internal">
        <lane id=":49110700_10_0" index="0" disallow="pedestrian tram rail_urban rail rail_electric rail_fast ship" speed="13.89" length="15.49" shape="743.27,457.47 758.76,457.53"/>
    </edge>
    <edge id=":49110700_11" function="internal">
        <lane id=":49110700_11_0" index="0" disallow="pedestrian tram rail_urban rail rail_electric rail_fast ship" speed="8.28" length="6.08" shape="743.27,457.47 747.33,458.07 749.02,459.09"/>
    </edge>
    <edge id=":49110700_14" function="internal">
        <lane id=":49110700_14_0" index="0" disallow="pedestrian tram rail_urban rail rail_electric rail_fast ship" speed="6.77" length="4.25" shape="748.20,455.38 749.00,454.06 749.40,451.39"/>
    </edge>
    <edge id=":49110700_15" function="internal">
        <lane id=":49110700_15_0" index="0" disallow="pedestrian tram rail_urban rail rail_electric rail_fast ship" speed="8.28" length="9.02" shape="749.02,459.09 750.25,459.84 752.02,462.78 752.65,466.88"/>
    </edge>
    <edge id=":49110700_c0" function="crossing" crossingEdges="-419814433#1 419814433#1">
        <lane id=":49110700_c0_0" index="0" allow="pedestrian" speed="1.00" length="6.40" width="4.00" shape="754.23,464.86 747.83,464.93"/>
    </edge>
    <edge id=":49110700_c1" function="crossing" crossingEdges="5962129#2 -5962129#2">
        <lane id=":49110700_c1_0" index="0" allow="pedestrian" speed="1.00" length="6.40" width="4.00" shape="756.77,455.92 756.74,462.32"/>
    </edge>
    <edge id=":49110700_c2" function="crossing" crossingEdges="419814433#2 -419814433#2">
        <lane id=":49110700_c2_0" index="0" allow="pedestrian" speed="1.00" length="6.40" width="4.00" shape="747.79,453.38 754.19,453.41"/>
    </edge>
    <edge id=":49110700_c3" function="crossing" crossingEdges="-5962129#1 5962129#0">
        <lane id=":49110700_c3_0" index="0" allow="pedestrian" speed="1.00" length="6.40" width="4.00" shape="745.25,462.28 745.28,455.88"/>
    </edge>
    <edge id=":49110700_w0" function="walkingarea">
        <lane id=":49110700_w0_0" index="0" allow="pedestrian" speed="1.00" length="3.78" width="4.00" shape="743.25,462.27 743.24,465.27 744.85,466.97 747.85,466.93 747.71,465.51 747.32,464.35 746.67,463.44 745.78,462.79 744.64,462.40"/>
    </edge>
    <edge id=":49110700_w1" function="walkingarea">
        <lane id=":49110700_w1_0" index="0" allow="pedestrian" speed="1.00" length="3.68" width="4.00" shape="754.25,466.86 757.25,466.83 758.73,465.33 758.74,462.33 757.36,462.45 756.22,462.83 755.35,463.45 754.73,464.34 754.36,465.47"/>
    </edge>
    <edge id=":49110700_w2" function="walkingarea">
        <lane id=":49110700_w2_0" index="0" allow="pedestrian" speed="1.00" length="3.71" width="4.00" shape="758.77,455.93 758.78,452.93 757.20,451.43 754.20,451.41 754.32,452.79 754.70,453.91 755.33,454.79 756.22,455.42 757.37,455.80"/>
    </edge>
    <edge id=":49110700_w3" function="walkingarea">