<?xml version="1.0" encoding="UTF-8"?>

<!-- generated on Tue Jun  2 10:25:52 2020 by Eclipse SUMO duarouter Version 1.6.0
<configuration xmlns:xsi="http://www.w3.org/2001/XMLSchema-instance" xsi:noNamespaceSchemaLocation="http://sumo.dlr.de/xsd/duarouterConfiguration.xsd">

    <input>
        <net-file value="osm.net.xml"/>
        <route-files value="osm.bicycle.trips.xml"/>
    </input>

    <output>
        <output-file value="osm.bicycle.rou.xml"/>
        <alternatives-output value="osm.bicycle.rou.alt.xml"/>
    </output>

    <time>
        <begin value="0"/>
        <end value="1800.0"/>
    </time>

    <report>
        <no-warnings value="true"/>
        <ignore-errors value="true"/>
        <no-step-log value="true"/>
    </report>

</configuration>
-->

<routes xmlns:xsi="http://www.w3.org/2001/XMLSchema-instance" xsi:noNamespaceSchemaLocation="http://sumo.dlr.de/xsd/routes_file.xsd">
    <vType id="bike_bicycle" vClass="bicycle"/>
    <vehicle id="bike0" type="bike_bicycle" depart="0.00" departLane="best">
        <route edges="578934718#2 -578934717#0 436291064#1 642337372 642337373 234953562 -641705065 -419814433#4 -419814433#2 -419814433#1 -419814433#0"/>
    </vehicle>
    <vehicle id="bike1" type="bike_bicycle" depart="5.39" departLane="best">
        <route edges="-578942372#1"/>
    </vehicle>
    <vehicle id="bike2" type="bike_bicycle" depart="10.77" departLane="best">
        <route edges="578942367#0 578942367#1 578942367#2 578942365 36054466#3 36054466#4 36054466#5 36054466#6 36054466#7 36054466#8 36054466#9 5962129#4 5962129#5 578942357"/>
    </vehicle>
    <vehicle id="bike4" type="bike_bicycle" depart="21.54" departLane="best" departSpeed="max">
        <route edges="419814433#0 -578934700#1 578934700#1 -419814433#0"/>
    </vehicle>
    <vehicle id="bike5" type="bike_bicycle" depart="26.93" departLane="best" departSpeed="max">
        <route edges="-578942364 419814433#4 641705064#0 436291031 436291062 436291064#1 642337372 641705146#0 578934689"/>
    </vehicle>
    <vehicle id="bike7" type="bike_bicycle" depart="37.70" departLane="best">
        <route edges="578934722 -578934723 578934724#2 -578934726 -419814433#2 -419814433#1 -578934700#1 578934699"/>
    </vehicle>
    <vehicle id="bike8" type="bike_bicycle" depart="43.09" departLane="best" departSpeed="max">
        <route edges="-578942364 419814433#4 641705064#0 436291031 436291062 578934717#0 578934717#1"/>
    </vehicle>
    <vehicle id="bike9" type="bike_bicycle" depart="48.48" departLane="best" departSpeed="max">
        <route edges="578942375 436291020#2 436291019 642751754#0 -184711458 -89927838#0 89927838#0 -184711460"/>
    </vehicle>
    <vehicle id="bike10" type="bike_bicycle" depart="53.86" departLane="best" departSpeed="max">
        <route edges="578942375 436291020#2 436291019 642751754#0 -184711458 89927838#3 36054466#0 36054466#1 36054466#3 36054466#4 36054466#5 36054466#6 36054466#7 36054466#8 36054466#9 5962129#4 -578942358 578942360#1"/>
    </vehicle>
    <vehicle id="bike11" type="bike_bicycle" depart="59.25" departLane="best">
        <route edges="-5962129#4 -5962129#3 -5962129#2 419814433#2 578934726 578934724#0 578934723 -578934723"/>
    </vehicle>
    <vehicle id="bike12" type="bike_bicycle" depart="64.63" departLane="best">
        <route edges="642751754#0 -184711458 89927838#3 36054466#0 36054466#1 36054466#3"/>
    </vehicle>
    <vehicle id="bike13" type="bike_bicycle" depart="70.02" departLane="best" departSpeed="max">
        <route edges="-578934699 578934700#1 -578934700#1"/>
    </vehicle>
    <vehicle id="bike14" type="bike_bicycle" depart="75.41" departLane="best">
        <route edges="5962129#3 5962129#4 5962129#5 gneE0 593766961 436291018 641705063#0 641705063#1 641705063#2 641705063#3 641705064#0 436291031 436291062 578934717#0 -578934718#2 578934718#0"/>
    </vehicle>
    <vehicle id="bike15" type="bike_bicycle" depart="80.79" departLane="best" departSpeed="max">
        <route edges="578942375 436291020#2 436291019 642751754#0 -184711458 89927838#3 36054466#0 36054466#1 36054466#3 36054466#4 641705063#2 641705063#3 -419814433#4 578942364"/>
    </vehicle>
    <vehicle id="bike17" type="bike_bicycle" depart="91.57" departLane="best">
        <route edges="36054466#1 36054466#3 36054466#4 641705063#2 641705063#3 -419814433#4 -419814433#2 -419814433#1 -578934700#1 578934700#1"/>
    </vehicle>
    <vehicle id="bike18" type="bike_bicycle" depart="96.95" departLane="best">
        <route edges="5955850#0 5955850#1 -578934709#0 578934709#0 -5955850#1 -5955850#0 5962129#0 419814433#2 419814433#4 641705064#0 578934719"/>
    </vehicle>
    <vehicle id="bike19" type="bike_bicycle" depart="102.34" departLane="best">
        <route edges="6024091#2 578934712 578934713#0 578934713#1"/>
    </vehicle>
    <vehicle id="bike20" type="bike_bicycle" depart="107.72" departLane="best">
        <route edges="578942360#1 578942361#1 578942360#0 578942358 -5962129#4 -5962129#3 -5962129#2 419814433#2 419814433#4 641705064#0 436291031 436291062 436291064#1 642337372 641705146#0 641705146#1 -578605862#2 578605861#0 -578605861#0"/>
    </vehicle>
    <vehicle id="bike21" type="bike_bicycle" depart="113.11" departLane="best">
        <route edges="-578942365 578942371#0 578942371#1 -578942370 641705063#3 641705065 634644489 -89927838#3 -89927838#0"/>
    </vehicle>
    <vehicle id="bike23" type="bike_bicycle" depart="123.88" departLane="best">
        <route edges="-578934700#1 578934700#1 419814433#1 5962129#2 5962129#3 5962129#4 5962129#5 578942357 -578942357 -593766965 -5962129#4"/>
    </vehicle>
    <vehicle id="bike24" type="bike_bicycle" depart="129.27" departLane="best">
        <route edges="578934718#1 578934718#2 -578934717#0 436291064#1 642337372 642337373 234953562 634644489 36054466#0 36054466#1 36054466#3 36054466#4 36054466#5 36054466#6 36054466#7 36054466#8"/>
    </vehicle>
    <vehicle id="bike25" type="bike_bicycle" depart="134.65" departLane="best">
        <route edges="36054466#0 36054466#1 -578942365 -578942367#2 -578942367#1 -578942367#0 -578942371#2"/>
    </vehicle>
    <vehicle id="bike26" type="bike_bicycle" depart="140.04" departLane="best">
        <route edges="-578942372#0 578942371#0 578942371#1 -578942370 641705063#3 641705064#0 436291031 436291062 436291064#1 642337372 641705146#0 641705146#1"/>
    </vehicle>
    <vehicle id="bike27" type="bike_bicycle" depart="145.43" departLane="best">
        <route edges="578934722 -578934723 578934724#2 578934724#0 -578934719 436291031 436291062 578934717#0 -578934718#2 -578934718#1 578934718#1"/>
    </vehicle>
    <vehicle id="bike28" type="bike_bicycle" depart="150.81" departLane="best" departSpeed="max">
        <route edges="-578942331 36054466#1 36054466#3 36054466#4 641705063#2 641705063#3 -419814433#4 578942364"/>
    </vehicle>
    <vehicle id="bike29" type="bike_bicycle" depart="156.20" departLane="best">
        <route edges="-578934726 -419814433#2 -419814433#1 -419814433#0 419814433#0 419814433#1 419814433#2"/>
    </vehicle>
    <vehicle id="bike30" type="bike_bicycle" depart="161.59" departLane="best">
        <route edges="89927838#3 36054466#0 36054466#1 36054466#3 36054466#4 641705063#2 641705063#3 -419814433#4 578934726"/>
    </vehicle>
    <vehicle id="bike32" type="bike_bicycle" depart="172.36" departLane="best">
        <route edges="5962129#2 5962129#3 5962129#4 5962129#5 gneE0 593766961 436291018 641705063#0 641705063#1 641705063#2 578942370"/>
    </vehicle>
    <vehicle id="bike33" type="bike_bicycle" depart="177.74" departLane="best">
        <route edges="-578942365 578942371#0 578942371#1 -578942370 641705063#3 -419814433#4 -419814433#2 -419814433#1"/>
    </vehicle>
    <vehicle id="bike34" type="bike_bicycle" depart="183.13" departLane="best" departSpeed="max">
        <route edges="-5955850#2 -5955850#1 -5955850#0 5962129#0 5962129#2 5962129#3 5962129#4 5962129#5 578942357 -578942357 -593766965 -5962129#4 -5962129#3 -5962129#2"/>
    </vehicle>
    <vehicle id="bike35" type="bike_bicycle" depart="188.52" departLane="best">
        <route edges="-578942358 578942360#1 578942361#1 578942360#0 578942358 -5962129#4 -5962129#3 -5962129#2 419814433#2 419814433#4 641705064#0 436291031 436291062 436291064#1 642337372"/>
    </vehicle>
    <vehicle id="bike36" type="bike_bicycle" depart="193.90" departLane="best">
        <route edges="6024091#5 642337372 642337373 234953562 634644489 278328405#0 278328405#1"/>
    </vehicle>
    <vehicle id="bike37" type="bike_bicycle" depart="199.29" departLane="best">
        <route edges="578934723 -578934723 578934724#2 578934724#0 -578934719 436291031 436291062 436291064#1 642337372 642337373 436291011"/>
    </vehicle>
    <vehicle id="bike38" type="bike_bicycle" depart="204.68" departLane="best">
        <route edges="641705065 634644489 36054466#0 36054466#1 36054466#3 36054466#4 641705063#2 641705063#3 641705064#0 436291031"/>
    </vehicle>
    <vehicle id="bike39" type="bike_bicycle" depart="210.06" departLane="best">
        <route edges="-578942371#2 -578942371#1 -578942371#0 578942365 36054466#3 36054466#4 36054466#5 36054466#6 36054466#7 36054466#8 36054466#9 5962129#4 5962129#5 578942357 -578942357 -593766965"/>
    </vehicle>
    <vehicle id="bike40" type="bike_bicycle" depart="215.45" departLane="best" departSpeed="max">
        <route edges="578934692 642337374#1 642337373 234953562 -641705065 -419814433#4 -419814433#2 -5962129#1"/>
    </vehicle>
    <vehicle id="bike41" type="bike_bicycle" depart="220.83" departLane="best" departSpeed="max">
        <route edges="578934709#0 -5955850#1 6024091#2 6024091#3 6024091#5 642337372 642337373 234953562 634644489"/>
    </vehicle>
    <vehicle id="bike42" type="bike_bicycle" depart="226.22" departLane="best">
        <route edges="36054466#6 36054466#7 36054466#8 36054466#9 5962129#4 5962129#5 gneE0 593766961 436291018 641705063#0 641705063#1 641705063#2 578942370 578942369#0 578942369#1 -578942372#1"/>
    </vehicle>
    <vehicle id="bike43" type="bike_bicycle" depart="231.61" departLane="best">
        <route edges="gneE1 -593766965 -5962129#4 -5962129#3 -5962129#2 419814433#2 419814433#4 641705064#0 436291031 436291062 436291064#1 642337372 641705146#0 641705146#1 -578605862#2 578934691#0 578934690"/>
    </vehicle>
    <vehicle id="bike44" type="bike_bicycle" depart="236.99" departLane="best" departSpeed="max">
        <route edges="-578934699 578934700#1 419814433#1 419814433#2 419814433#4 641705064#0 436291031 436291062 436291064#1 642337372 641705146#0 641705146#1 -578605862#2 578605861#0 -578605861#0"/>
    </vehicle>
    <vehicle id="bike45" type="bike_bicycle" depart="242.38" departLane="best" departSpeed="max">
        <route edges="-578934709#1 -5955850#1 -5955850#0 5962129#0 419814433#2 578934726 578934724#0 578934723"/>
    </vehicle>
    <vehicle id="bike46" type="bike_bicycle" depart="247.77" departLane="best">
        <route edges="578942372#0 578942368#0 578942368#1 578942371#1 -578942370 641705063#3 641705064#0 436291031 436291016#0 436291016#4 436291016#9"/>
    </vehicle>
    <vehicle id="bike48" type="bike_bicycle" depart="258.54" departLane="best">
        <route edges="gneE1 -593766965 -5962129#4 -5962129#3 -5962129#2 419814433#2 419814433#4 641705064#0 436291031 436291062 436291064#1 642337372 641705146#0 641705146#1 -578605862#2 578934691#0 578934691#1"/>
    </vehicle>
    <vehicle id="bike49" type="bike_bicycle" depart="263.92" departLane="best">
        <route edges="89922370#5 641705063#0 641705063#1 36054466#5 36054466#6 36054466#7 36054466#8 578942362 5962129#3"/>
    </vehicle>
    <vehicle id="bike50" type="bike_bicycle" depart="269.31" departLane="best">
        <route edges="-419814433#1 -419814433#0 419814433#0 419814433#1 5962129#2 5962129#3 5962129#4 5962129#5 gneE0 593766961 436291018 641705063#0 641705063#1 36054466#5 36054466#6 36054466#7 578942363"/>
    </vehicle>
    <vehicle id="bike51" type="bike_bicycle" depart="274.70" departLane="best">
        <route edges="578942354#0 578942354#1 -578942355 641705063#1 641705063#2 641705063#3 641705064#0 436291031 436291016#0 436291016#4 578934698"/>
    </vehicle>
    <vehicle id="bike52" type="bike_bicycle" depart="280.08" departLane="best">
        <route edges="-578942372#0 578942371#0 578942371#1 -578942370 641705063#3 -419814433#4 578934726"/>
    </vehicle>
    <vehicle id="bike53" type="bike_bicycle" depart="285.47" departLane="best" departSpeed="max">
        <route edges="-578934709#1 -5955850#1 -5955850#0 5962129#0 5962129#2 5962129#3 5962129#4 5962129#5 gneE0 593766961 436291018 436291020#0 436291020#2 436291019"/>
    </vehicle>
    <vehicle id="bike55" type="bike_bicycle" depart="296.24" departLane="best">
        <route edges="6024091#5 642337372 642337373 234953562 -641705065 -419814433#4 -419814433#2 -5962129#1"/>
    </vehicle>
    <vehicle id="bike56" type="bike_bicycle" depart="301.63" departLane="best" departSpeed="max">
        <route edges="436291021#0 593766961 436291018 641705063#0 641705063#1 641705063#2 578942370 578942369#0 -578942367#0"/>
    </vehicle>
    <vehicle id="bike57" type="bike_bicycle" depart="307.01" departLane="best">
        <route edges="641705064#0 578934719 578934724#2 -578934726 -419814433#2 5962129#2 5962129#3 5962129#4 5962129#5"/>
    </vehicle>
    <vehicle id="bike58" type="bike_bicycle" depart="312.40" departLane="best">
        <route edges="-593766965 -5962129#4 -5962129#3 -5962129#2 419814433#2 578934726 578934724#0 578934724#2"/>
    </vehicle>
    <vehicle id="bike59" type="bike_bicycle" depart="317.79" departLane="best">
        <route edges="578934713#0 578934713#1 -578934712 6024091#3 6024091#5 642337372 642337373 234953562 -641705065 641705064#0 578934719 578934723 -578934723"/>
    </vehicle>
    <vehicle id="bike60" type="bike_bicycle" depart="323.17" departLane="best">
        <route edges="578942369#0 -578942367#0 -578942371#2 -578942370 641705063#3 -419814433#4 -419814433#2 -419814433#1 -578934700#1 578934699"/>
    </vehicle>
    <vehicle id="bike61" type="bike_bicycle" depart="328.56" departLane="best">
        <route edges="578942371#0 578942371#1 -578942370 641705063#3 641705064#0 436291031 436291062 436291064#1 642337372 641705146#0 641705146#1 -578605862#2 578934691#0 578934691#1"/>
    </vehicle>
    <vehicle id="bike62" type="bike_bicycle" depart="333.94" departLane="best">
        <route edges="-184711458 89927838#3 36054466#0 36054466#1"/>
    </vehicle>
    <vehicle id="bike63" type="bike_bicycle" depart="339.33" departLane="best">
        <route edges="-419814433#2 -5962129#1 5955850#0 6024091#2 6024091#3 6024091#5 642337372 641705146#0"/>
    </vehicle>
    <vehicle id="bike64" type="bike_bicycle" depart="344.72" departLane="best">
        <route edges="623099335 578934722 -578934723 578934724#2 -578934726 -419814433#2 -5962129#1 5955850#0"/>
    </vehicle>
    <vehicle id="bike65" type="bike_bicycle" depart="350.10" departLane="best">
        <route edges="-5955850#0 5962129#0 419814433#2 419814433#4 641705064#0 436291031 436291062 436291064#1 642337372 641705146#0 641705146#1 -578605862#2 578605861#0 -578605861#2"/>
    </vehicle>
    <vehicle id="bike66" type="bike_bicycle" depart="355.49" departLane="best">
        <route edges="623099335 578934722 -578934723 578934724#2 578934724#0 -578934719 436291031 436291062 436291064#1 642337372 642337373"/>
    </vehicle>
    <vehicle id="bike69" type="bike_bicycle" depart="371.65" departLane="best">
        <route edges="578942369#1 578942372#2 -578942371#2 -578942370 641705063#3 641705064#0 436291031 436291062 578934717#0 -578934718#2 578934718#2 -578934717#0"/>
    </vehicle>
    <vehicle id="bike70" type="bike_bicycle" depart="377.03" departLane="best">
        <route edges="436291018 641705063#0 641705063#1 641705063#2 641705063#3 -419814433#4 -419814433#2 -419814433#1 -578934700#1 578934700#1"/>
    </vehicle>
    <vehicle id="bike71" type="bike_bicycle" depart="382.42" departLane="best">
        <route edges="-578942371#2 -578942371#1 -578942371#0 578942365 36054466#3 36054466#4 36054466#5 36054466#6 36054466#7 36054466#8 36054466#9 5962129#4 5962129#5"/>
    </vehicle>
    <vehicle id="bike72" type="bike_bicycle" depart="387.81" departLane="best" departSpeed="max">
        <route edges="419814433#0 419814433#1 5962129#2 5962129#3 5962129#4 5962129#5 gneE0 593766961 436291018 641705063#0 641705063#1 641705063#2 578942370 578942371#2 -578942371#2"/>
    </vehicle>
    <vehicle id="bike74" type="bike_bicycle" depart="398.58" departLane="best" departSpeed="max">
        <route edges="-578942357 gneE0 593766961 436291018 436291020#0 436291020#2 436291019 278328405#1"/>
    </vehicle>
    <vehicle id="bike75" type="bike_bicycle" depart="403.96" departLane="best">
        <route edges="gneE1 -593766965 -5962129#4 -5962129#3 -5962129#2 419814433#2 419814433#4 641705065 634644489 36054466#0 578942331"/>
    </vehicle>
    <vehicle id="bike76" type="bike_bicycle" depart="409.35" departLane="best">
        <route edges="419814433#4 641705064#0 436291031 436291062 436291064#1 642337372 641705146#0 641705146#1 -578605862#2 578934691#0 578934690"/>
    </vehicle>
    <vehicle id="bike77" type="bike_bicycle" depart="414.74" departLane="best">
        <route edges="-578934717#0 436291064#1 642337372 642337373 234953562 634644489 36054466#0 36054466#1 -578942365 -578942367#2 -578942367#1 -578942367#0 -578942372#2"/>
    </vehicle>
    <vehicle id="bike78" type="bike_bicycle" depart="420.12" departLane="best">
        <route edges="-5962129#3 -5962129#2 419814433#2 419814433#4 641705064#0 436291031 436291062 578934717#0"/>
    </vehicle>
    <vehicle id="bike79" type="bike_bicycle" depart="425.51" departLane="best">
        <route edges="-578942365 578942372#0 578942372#1 -578942372#1"/>
    </vehicle>
    <vehicle id="bike81" type="bike_bicycle" depart="436.28" departLane="best">
        <route edges="-578942365 -578942367#2 578942367#2 578942365 36054466#3 36054466#4 36054466#5 36054466#6 36054466#7 36054466#8 36054466#9 5962129#4 5962129#5 gneE0 593766961 436291018 641705063#0 641705063#1"/>
    </vehicle>
    <vehicle id="bike82" type="bike_bicycle" depart="441.67" departLane="best">
        <route edges="5962129#5 gneE0 593766961 436291018 641705063#0 641705063#1 641705063#2 641705063#3 641705064#0 436291031 436291062 436291064#1 642337372 641705146#0 641705146#1 -578605862#2 -578605862#0"/>
    </vehicle>
    <vehicle id="bike83" type="bike_bicycle" depart="447.05" departLane="best">
        <route edges="-578942367#1 578942367#1 578942367#2 578942365 36054466#3 36054466#4 36054466#5 36054466#6 36054466#7 36054466#8 36054466#9 5962129#4 5962129#5 gneE0 593766961 436291018 641705063#0 578942355 578942354#0 578942354#1"/>
    </vehicle>
    <vehicle id="bike84" type="bike_bicycle" depart="452.44" departLane="best">
        <route edges="-578942358 578942360#1 578942361#1 578942360#0 578942358 -5962129#4 -5962129#3 -5962129#2 419814433#2 419814433#4 641705064#0 436291031 436291062 578934717#0 -578934718#2 -578934718#1 -578934718#0"/>
    </vehicle>
    <vehicle id="bike85" type="bike_bicycle" depart="457.83" departLane="best">
        <route edges="642337373 436291011 436291010 436291016#0 5955850#0 6024091#2 578934712 578934713#0"/>
    </vehicle>
    <vehicle id="bike86" type="bike_bicycle" depart="463.21" departLane="best">
        <route edges="436291018 641705063#0 641705063#1 641705063#2 578942370 -578942371#1 578942371#1"/>
    </vehicle>
    <vehicle id="bike87" type="bike_bicycle" depart="468.60" departLane="best" departSpeed="max">
        <route edges="578942375 436291020#2 436291019 642751754#0 -184711458 89927838#3 36054466#0 36054466#1 -578942365 -578942367#2"/>
    </vehicle>
    <vehicle id="bike88" type="bike_bicycle" depart="473.99" departLane="best" departSpeed="max">
        <route edges="-578934699 578934700#1 419814433#1 5962129#2 5962129#3 5962129#4 5962129#5 gneE0 593766961 436291018"/>
    </vehicle>
    <vehicle id="bike89" type="bike_bicycle" depart="479.37" departLane="best" departSpeed="max">
        <route edges="419814433#0 419814433#1 419814433#2 419814433#4 641705064#0 436291031 436291062 436291064#1"/>
    </vehicle>
    <vehicle id="bike90" type="bike_bicycle" depart="484.76" departLane="best">
        <route edges="578942365 36054466#3 36054466#4 36054466#5 36054466#6 36054466#7 36054466#8 36054466#9 5962129#4 5962129#5 gneE0 593766961 436291018 641705063#0 578942355"/>
    </vehicle>
    <vehicle id="bike91" type="bike_bicycle" depart="490.14" departLane="best" departSpeed="max">
        <route edges="89927838#0 89927838#3 36054466#0 36054466#1 36054466#3 36054466#4 641705063#2 641705063#3 -419814433#4 -419814433#2 -419814433#1 -578934700#1"/>
    </vehicle>
    <vehicle id="bike92" type="bike_bicycle" depart="495.53" departLane="best">
        <route edges="36054466#7 36054466#8 36054466#9 5962129#4 5962129#5 gneE0 593766961 436291018 641705063#0 641705063#1 641705063#2 578942370 -578942371#1 -578942371#0 578942365 36054466#3"/>
    </vehicle>
    <vehicle id="bike93" type="bike_bicycle" depart="500.92" departLane="best">
        <route edges="6024091#2 6024091#3 6024091#5 642337372 642337373 436291011 436291010 436291016#0 5962129#0 5962129#2 5962129#3 5962129#4 5962129#5 578942357 -578942357 -593766965"/>
    </vehicle>
    <vehicle id="bike94" type="bike_bicycle" depart="506.30" departLane="best" departSpeed="max">
        <route edges="-578942344 89922370#5 436291020#0 436291020#2 436291019 278328405#1 436291029"/>
    </vehicle>
    <vehicle id="bike95" type="bike_bicycle" depart="511.69" departLane="best" departSpeed="max">
        <route edges="419814433#0 419814433#1 5962129#2 5962129#3 5962129#4 5962129#5 578942357 -578942357 -593766965 -5962129#4"/>
    </vehicle>
    <vehicle id="bike96" type="bike_bicycle" depart="517.07" departLane="best">
        <route edges="-578942370 641705063#3 641705064#0"/>
    </vehicle>
    <vehicle id="bike97" type="bike_bicycle" depart="522.46" departLane="best">
        <route edges="436291010 436291016#0 5962129#0 5962129#2 5962129#3"/>
    </vehicle>
    <vehicle id="bike98" type="bike_bicycle" depart="527.85" departLane="best" departSpeed="max">
        <route edges="578605862#0 578605861#0 -578605861#0"/>
    </vehicle>
    <vehicle id="bike99" type="bike_bicycle" depart="533.23" departLane="best">
        <route edges="gneE1 -593766965 -5962129#4 -5962129#3 -5962129#2 -5962129#1 5955850#0 5955850#1"/>
    </vehicle>
    <vehicle id="bike100" type="bike_bicycle" depart="538.62" departLane="best" departSpeed="max">
        <route edges="89922370#0 89922370#5 641705063#0 641705063#1 641705063#2 641705063#3 641705065"/>
    </vehicle>
    <vehicle id="bike101" type="bike_bicycle" depart="544.01" departLane="best">
        <route edges="5962129#3 5962129#4 5962129#5 gneE0 593766961 436291018 641705063#0 578942355 578942354#0 578942354#1 -578942355"/>
    </vehicle>
    <vehicle id="bike102" type="bike_bicycle" depart="549.39" departLane="best">
        <route edges="436291020#0 436291020#2 436291019 642751754#0 -184711458 89927838#3 36054466#0 36054466#1 -578942365 578942372#0 -578942372#0"/>
    </vehicle>
    <vehicle id="bike103" type="bike_bicycle" depart="554.78" departLane="best">
        <route edges="36054466#7 36054466#8 578942362 -5962129#2 419814433#2 419814433#4 641705064#0 436291031 436291062 436291064#1 642337372 641705146#0 641705146#1 -578605862#2 578605861#0 -578605861#2"/>
    </vehicle>
    <vehicle id="bike104" type="bike_bicycle" depart="560.16" departLane="best">
        <route edges="36054466#1 36054466#3 36054466#4 641705063#2 641705063#3 641705065 634644489 -89927838#3 -89927838#0 89927838#0 89927838#3"/>
    </vehicle>
    <vehicle id="bike105" type="bike_bicycle" depart="565.55" departLane="best">
        <route edges="-578942371#2 -578942371#1 578942371#1"/>
    </vehicle>
    <vehicle id="bike106" type="bike_bicycle" depart="570.94" departLane="best">
        <route edges="436291013 436291011 436291010 436291016#0 436291016#4 436291016#9"/>
    </vehicle>
    <vehicle id="bike107" type="bike_bicycle" depart="576.32" departLane="best">
        <route edges="642751754#0 -184711458 89927838#3 36054466#0 36054466#1 36054466#3 36054466#4 36054466#5 36054466#6 36054466#7 36054466#8 36054466#9 5962129#4 5962129#5 gneE0 593766960 593766962#0 -593766962#1 -593766960 gneE1"/>
    </vehicle>
    <vehicle id="bike109" type="bike_bicycle" depart="587.10" departLane="best">
        <route edges="-578934723 578934724#2 -578934726 419814433#4 641705065 634644489 -89927838#3"/>
    </vehicle>
    <vehicle id="bike110" type="bike_bicycle" depart="592.48" departLane="best" departSpeed="max">
        <route edges="89922370#0 89922370#5 641705063#0 641705063#1 641705063#2 641705063#3 641705064#0 436291031 436291062 578934717#0 -578934718#2 -578934718#1 578934716"/>
    </vehicle>
    <vehicle id="bike113" type="bike_bicycle" depart="608.64" departLane="best">
        <route edges="436291031 436291016#0 5962129#0"/>
    </vehicle>
    <vehicle id="bike114" type="bike_bicycle" depart="614.03" departLane="best">
        <route edges="-578934723 578934724#2 578934724#0 -578934719 436291031 436291062 436291064#1 642361032"/>
    </vehicle>
    <vehicle id="bike116" type="bike_bicycle" depart="624.80" departLane="best" departSpeed="max">
        <route edges="578934711 6024091#5 642337372 642337373 436291011 436291010 436291016#0 5962129#0 5962129#2 5962129#3 5962129#4 5962129#5 578942357"/>
    </vehicle>
    <vehicle id="bike117" type="bike_bicycle" depart="630.19" departLane="best">
        <route edges="-578942367#0 -578942371#2 -578942370 641705063#3 641705064#0 436291031 436291016#0 5955850#0 6024091#2 6024091#3 -578934711"/>
    </vehicle>
    <vehicle id="bike118" type="bike_bicycle" depart="635.57" departLane="best">
        <route edges="641705063#0 641705063#1 36054466#5 36054466#6 36054466#7 36054466#8 36054466#9 5962129#4 5962129#5 578942357 -578942357 -593766965"/>
    </vehicle>
    <vehicle id="bike119" type="bike_bicycle" depart="640.96" departLane="best" departSpeed="max">
        <route edges="578934711 6024091#5 642337372 642337373 234953562 -641705065 641705064#0 578934719 578934723 623099335 578934722"/>
    </vehicle>
    <vehicle id="bike120" type="bike_bicycle" depart="646.34" departLane="best" departSpeed="max">
        <route edges="419814433#0 419814433#1 419814433#2 419814433#4 641705064#0 436291031 436291062 578934717#0 -578934718#2 -578934718#1 578934716"/>
    </vehicle>
    <vehicle id="bike121" type="bike_bicycle" depart="651.73" departLane="best" departSpeed="max">
        <route edges="573865733#1 436291013 436291011 436291010 436291062 436291064#1 642337372 641705146#0 641705146#1"/>
    </vehicle>
    <vehicle id="bike122" type="bike_bicycle" depart="657.12" departLane="best" departSpeed="max">
        <route edges="-578942357 gneE0 593766961 436291018 641705063#0 641705063#1 36054466#5 36054466#6 36054466#7 578942363"/>
    </vehicle>
    <vehicle id="bike123" type="bike_bicycle" depart="662.50" departLane="best">
        <route edges="-578942367#1 -578942367#0 -578942371#2 -578942370 641705063#3 641705064#0 436291031 436291062 436291064#1 642337372 642337373 436291011"/>
    </vehicle>
    <vehicle id="bike124" type="bike_bicycle" depart="667.89" departLane="best">
        <route edges="578934726 578934724#0 -578934719 436291031 436291062 436291064#1 642337372 642337373 234953562"/>
    </vehicle>
    <vehicle id="bike125" type="bike_bicycle" depart="673.27" departLane="best" departSpeed="max">
        <route edges="-5955850#2 -5955850#1 6024091#2 6024091#3 6024091#5 642337372 642337373 234953562 634644489 36054466#0 36054466#1 -578942365 578942372#0 578942368#0"/>
    </vehicle>
    <vehicle id="bike127" type="bike_bicycle" depart="684.05" departLane="best">
        <route edges="gneE1"/>
    </vehicle>
    <vehicle id="bike129" type="bike_bicycle" depart="694.82" departLane="best">
        <route edges="-578942371#2 -578942370 641705063#3 641705064#0 436291031 436291062 436291064#1 642337372 641705146#0"/>
    </vehicle>
    <vehicle id="bike130" type="bike_bicycle" depart="700.21" departLane="best">
        <route edges="623099335 578934722 -578934723 578934724#2 -578934726 -419814433#2 -5962129#1 5955850#0 6024091#2 6024091#3"/>
    </vehicle>
    <vehicle id="bike131" type="bike_bicycle" depart="705.59" departLane="best">
        <route edges="36054466#0 36054466#1 36054466#3 36054466#4 641705063#2 641705063#3 641705064#0 578934719 578934724#2 -578934726"/>
    </vehicle>
    <vehicle id="bike132" type="bike_bicycle" depart="710.98" departLane="best">
        <route edges="5955850#1 -578934709#0 578934709#0 -5955850#1 -5955850#0 5962129#0 5962129#2 5962129#3 5962129#4 5962129#5 gneE0 593766961 436291018 641705063#0 641705063#1 36054466#5 578942361#0"/>
    </vehicle>
    <vehicle id="bike133" type="bike_bicycle" depart="716.36" departLane="best">
        <route edges="578934713#1 -578934712 6024091#3 6024091#5 642337372 642337373 234953562 634644489 -89927838#3 -89927838#0 89927838#0 89927838#3"/>
    </vehicle>
    <vehicle id="bike134" type="bike_bicycle" depart="721.75" departLane="best">
        <route edges="578934723 -578934723 578934724#2 -578934726 419814433#4 641705065 634644489 -89927838#3 -184711460"/>
    </vehicle>
    <vehicle id="bike135" type="bike_bicycle" depart="727.14" departLane="best">
        <route edges="593766960 593766962#0 -593766962#1 -593766960 593766961 436291018 641705063#0 641705063#1 641705063#2 641705063#3 641705065 634644489 -89927838#3"/>
    </vehicle>
    <vehicle id="bike136" type="bike_bicycle" depart="732.52" departLane="best">
        <route edges="578934724#2 578934724#0 -578934719 436291031 436291062 436291064#1 642337372 641705146#0 641705146#1"/>
    </vehicle>
    <vehicle id="bike137" type="bike_bicycle" depart="737.91" departLane="best">