<?xml version="1.0" encoding="UTF-8"?>

<!-- generated on Tue Dec 10 15:49:22 2019 by Eclipse SUMO duarouter Version 1.3.1
<configuration xmlns:xsi="http://www.w3.org/2001/XMLSchema-instance" xsi:noNamespaceSchemaLocation="http://sumo.dlr.de/xsd/duarouterConfiguration.xsd">

    <input>
        <net-file value="osm.net.xml"/>
        <route-files value="osm.bicycle.trips.xml"/>
    </input>

    <output>
        <output-file value="osm.bicycle.rou.xml"/>
        <alternatives-output value="osm.bicycle.rou.alt.xml"/>
    </output>

    <time>
        <begin value="0"/>
        <end value="3600.0"/>
    </time>

    <report>
        <no-warnings value="true"/>
        <ignore-errors value="true"/>
        <no-step-log value="true"/>
    </report>

</configuration>
-->

<routes xmlns:xsi="http://www.w3.org/2001/XMLSchema-instance" xsi:noNamespaceSchemaLocation="http://sumo.dlr.de/xsd/routes_file.xsd">
    <vType id="bike_bicycle" vClass="bicycle"/>
    <vehicle id="bike1" type="bike_bicycle" depart="9.58" departLane="best">
        <route edges="-593766964 578942357 -578942357 593766964 593766963 593766961 436291018 641705063#0 641705063#1 641705063#2 578942370 578942369#0 578942369#1 -578942372#1"/>
    </vehicle>
    <vehicle id="bike2" type="bike_bicycle" depart="19.15" departLane="best">
        <route edges="578942361#2 593766965 593766964 593766963 593766961 436291018 641705063#0 578942355 578942354#0"/>
    </vehicle>
    <vehicle id="bike3" type="bike_bicycle" depart="28.73" departLane="best">
        <route edges="6024091#2 6024091#3 6024091#5 642337372 642337373 436291011 436291010 436291016#0 436291016#1 436291016#2 436291016#3 436291016#4 436291016#5 436291016#6 436291016#7 436291016#8 436291016#9 -578934698"/>
    </vehicle>
    <vehicle id="bike4" type="bike_bicycle" depart="38.30" departLane="best">
        <route edges="436291010 436291016#0 436291016#1 436291016#2 436291016#3 5962129#0 5962129#1 -419814433#1 -419814433#0"/>
    </vehicle>
    <vehicle id="bike5" type="bike_bicycle" depart="47.88" departLane="best">
        <route edges="-578942367#1 -578942367#0 -578942371#2 -578942370 641705063#3 641705064#0 641705064#1 436291031 436291062 436291064#0 436291064#1 642337372 641705146#0 641705146#1 -578605862#2 578605861#0 578605861#1"/>
    </vehicle>
    <vehicle id="bike7" type="bike_bicycle" depart="67.03" departLane="best">
        <route edges="578934717#0 -578934718#2 578934718#2 -578934717#0 436291064#1 642337372 641705146#0 641705146#1 -578605862#2 578934691#0 578934691#1"/>
    </vehicle>
    <vehicle id="bike8" type="bike_bicycle" depart="76.60" departLane="best">
        <route edges="-578942367#2 578942368#1 578942371#1 -578942370 641705063#3 641705064#0 641705064#1 436291031 436291016#0 436291016#1 436291016#2 436291016#3 5955850#0 6024091#2 578934712"/>
    </vehicle>
    <vehicle id="bike9" type="bike_bicycle" depart="86.18" departLane="best">
        <route edges="578942372#2 578942367#0 578942367#1 578942367#2 578942365 36054466#3 36054466#4 36054466#5 36054466#6 36054466#7 36054466#8 36054466#9 5962129#4 5962129#5 593766965 593766964 593766963 593766961 436291018 436291020#0 -184711452"/>
    </vehicle>
    <vehicle id="bike10" type="bike_bicycle" depart="95.75" departLane="best">
        <route edges="578942372#1 -578942372#1 -578942372#0 578942365 36054466#3 36054466#4 36054466#5 36054466#6 36054466#7 36054466#8 36054466#9 5962129#4 5962129#5 593766965 578942357"/>
    </vehicle>
    <vehicle id="bike11" type="bike_bicycle" depart="105.33" departLane="best" departSpeed="max">
        <route edges="184711452 436291020#1 436291020#2 436291019 642751754#0 -184711458 89927838#3 36054466#0 36054466#1 36054466#2 36054466#3 36054466#4 641705063#2 641705063#3 641705064#0 641705064#1 436291031 436291016#0 -578934718#3"/>
    </vehicle>
    <vehicle id="bike12" type="bike_bicycle" depart="114.91" departLane="best" departSpeed="max">
        <route edges="642337374#0 642337374#1 642337373 234953562 634644489 36054466#0 36054466#1 36054466#2"/>
    </vehicle>
    <vehicle id="bike13" type="bike_bicycle" depart="124.48" departLane="best" departSpeed="max">
        <route edges="-578934709#1 -5955850#1 -5955850#0 5962129#0 578934700#0 578934700#1 -578934700#1"/>
    </vehicle>
    <vehicle id="bike14" type="bike_bicycle" depart="134.06" departLane="best">
        <route edges="5955850#0 6024091#2 6024091#3 6024091#5 642337372 642337373 436291011 436291010 436291062 436291064#0 578934717#0"/>
    </vehicle>
    <vehicle id="bike15" type="bike_bicycle" depart="143.63" departLane="best">
        <route edges="578942372#2 578942367#0 578942367#1 578942367#2 578942365 36054466#3 36054466#4 36054466#5 36054466#6 36054466#7 36054466#8 578942362"/>
    </vehicle>
    <vehicle id="bike17" type="bike_bicycle" depart="162.78" departLane="best">
        <route edges="36054466#5 36054466#6 36054466#7 36054466#8 578942362 -5962129#2 -5962129#1 578934700#0 578934699"/>
    </vehicle>
    <vehicle id="bike18" type="bike_bicycle" depart="172.36" departLane="best">
        <route edges="593766961 436291018 641705063#0 641705063#1 641705063#2 641705063#3 641705064#0 641705064#1 436291031 436291062 436291064#0 578934717#0 -578934718#2 578934718#0"/>
    </vehicle>
    <vehicle id="bike19" type="bike_bicycle" depart="181.93" departLane="best">
        <route edges="5962129#1 -419814433#1 -578934700#1 -578934700#0 -5962129#0 436291016#4 578934702"/>
    </vehicle>
    <vehicle id="bike20" type="bike_bicycle" depart="191.51" departLane="best">
        <route edges="578942354#1 -578942355 641705063#1 641705063#2 641705063#3 -419814433#4"/>
    </vehicle>
    <vehicle id="bike21" type="bike_bicycle" depart="201.08" departLane="best">
        <route edges="-578942370 641705063#3 641705064#0 641705064#1 436291031 436291062 436291064#0 436291064#1 642337372 642337373 234953562 -641705065"/>
    </vehicle>
    <vehicle id="bike22" type="bike_bicycle" depart="210.66" departLane="best" departSpeed="max">
        <route edges="-578934699 -578934700#0 5962129#1 5962129#2 5962129#3 5962129#4 5962129#5 593766965 593766964 593766963 593766961 436291018 436291020#0 436291020#1 -578942375"/>
    </vehicle>
    <vehicle id="bike23" type="bike_bicycle" depart="220.24" departLane="best">
        <route edges="-578934712 6024091#3 6024091#5 642337372 642337373 234953562 634644489 36054466#0 36054466#1 36054466#2 36054466#3 36054466#4 36054466#5 36054466#6 36054466#7 36054466#8 36054466#9 -5962129#3"/>
    </vehicle>
    <vehicle id="bike24" type="bike_bicycle" depart="229.81" departLane="best" departSpeed="max">
        <route edges="578934715 436291016#2 436291016#3 5962129#0 5962129#1 5962129#2 5962129#3 5962129#4 5962129#5 593766965 593766964 593766963 593766961 436291018 641705063#0 641705063#1 36054466#5 36054466#6 36054466#7 36054466#8"/>
    </vehicle>
    <vehicle id="bike25" type="bike_bicycle" depart="239.39" departLane="best">
        <route edges="36054466#3 36054466#4 641705063#2 578942370 -578942371#1"/>
    </vehicle>
    <vehicle id="bike26" type="bike_bicycle" depart="248.96" departLane="best" departSpeed="max">
        <route edges="-593766962#1 -593766960 593766961 436291018 641705063#0 641705063#1 641705063#2 641705063#3 641705065"/>
    </vehicle>
    <vehicle id="bike27" type="bike_bicycle" depart="258.54" departLane="best">
        <route edges="578934717#0 578934717#1"/>
    </vehicle>
    <vehicle id="bike28" type="bike_bicycle" depart="268.11" departLane="best" departSpeed="max">
        <route edges="-578942344 89922370#5 641705063#0 641705063#1 36054466#5 36054466#6 36054466#7 36054466#8 578942362"/>
    </vehicle>
    <vehicle id="bike29" type="bike_bicycle" depart="277.69" departLane="best" departSpeed="max">
        <route edges="-578942334 578942335 -593766960 -593766963 -593766964 -593766965 -5962129#5 -5962129#4 -5962129#3 -5962129#2 419814433#2 419814433#4"/>
    </vehicle>
    <vehicle id="bike30" type="bike_bicycle" depart="287.26" departLane="best" departSpeed="max">
        <route edges="89927838#0 89927838#3 36054466#0 36054466#1 36054466#2 36054466#3 36054466#4 641705063#2 641705063#3 641705064#0 578934719 578934723 623099335 578934722"/>
    </vehicle>
    <vehicle id="bike32" type="bike_bicycle" depart="306.41" departLane="best">
        <route edges="593766965 593766964 593766963 593766961 436291018 641705063#0 641705063#1 641705063#2 578942370 578942369#0 578942369#1"/>
    </vehicle>
    <vehicle id="bike33" type="bike_bicycle" depart="315.99" departLane="best">
        <route edges="-578942371#0 578942371#0 578942371#1 -578942370 641705063#3 -419814433#4 -419814433#2 -419814433#1 -419814433#0"/>
    </vehicle>
    <vehicle id="bike34" type="bike_bicycle" depart="325.57" departLane="best">
        <route edges="-5962129#4 -5962129#3 -5962129#2 -5962129#1"/>
    </vehicle>
    <vehicle id="bike35" type="bike_bicycle" depart="335.14" departLane="best">
        <route edges="-578942365 578942371#0 578942371#1 -578942370 641705063#3 641705064#0 641705064#1 436291031 436291062 436291064#0 436291064#1 642337372 641705146#0"/>
    </vehicle>
    <vehicle id="bike36" type="bike_bicycle" depart="344.72" departLane="best">
        <route edges="5962129#5 593766965 593766964 593766963 593766961 436291018 436291020#0 436291020#1 436291020#2 436291019 278328405#1"/>
    </vehicle>
    <vehicle id="bike38" type="bike_bicycle" depart="363.87" departLane="best">
        <route edges="641705063#1 36054466#5 36054466#6 36054466#7 36054466#8 36054466#9 5962129#4 5962129#5 593766965 593766964 593766963 593766961 436291018 436291020#0"/>
    </vehicle>
    <vehicle id="bike39" type="bike_bicycle" depart="373.44" departLane="best" departSpeed="max">
        <route edges="-593766962#1 -593766960 -593766963 -593766964"/>
    </vehicle>
    <vehicle id="bike41" type="bike_bicycle" depart="392.59" departLane="best">
        <route edges="578934700#1 419814433#1 -5962129#1 -5962129#0 5955850#0 6024091#2 6024091#3 6024091#5"/>
    </vehicle>
    <vehicle id="bike42" type="bike_bicycle" depart="402.17" departLane="best" departSpeed="max">
        <route edges="419814433#0 419814433#1 419814433#2 419814433#4 641705065 634644489 36054466#0 36054466#1 36054466#2 -578942365 578942372#0 -578942372#0"/>
    </vehicle>
    <vehicle id="bike43" type="bike_bicycle" depart="411.74" departLane="best">
        <route edges="89927838#3 36054466#0 36054466#1 36054466#2 36054466#3 36054466#4 641705063#2 641705063#3 641705064#0 641705064#1 436291031 436291062 436291064#0 436291064#1 642337372 641705146#0 641705146#1 -578605862#2 578605861#0 578605861#1 578605861#2"/>
    </vehicle>
    <vehicle id="bike44" type="bike_bicycle" depart="421.32" departLane="best" departSpeed="max">
        <route edges="-578934709#1 -5955850#1 6024091#2 6024091#3 6024091#5 642337372 642337373 234953562 -641705065 -419814433#4"/>
    </vehicle>
    <vehicle id="bike45" type="bike_bicycle" depart="430.90" departLane="best" departSpeed="max">
        <route edges="-578934717#1 -578934718#2 578934718#2"/>
    </vehicle>
    <vehicle id="bike46" type="bike_bicycle" depart="440.47" departLane="best">
        <route edges="578942371#1 -578942370 641705063#3 641705064#0 641705064#1 436291031 436291016#0 436291016#1 436291016#2 436291016#3"/>
    </vehicle>
    <vehicle id="bike48" type="bike_bicycle" depart="459.62" departLane="best">
        <route edges="89927838#3 36054466#0 36054466#1 36054466#2 36054466#3 36054466#4 641705063#2 641705063#3 641705064#0 641705064#1 436291031 436291062 436291064#0 436291064#1 642337372 641705146#0 641705146#1 -578605862#2 578934691#0 578934690"/>
    </vehicle>
    <vehicle id="bike49" type="bike_bicycle" depart="469.20" departLane="best">
        <route edges="642751754#0 -184711458 89927838#3 36054466#0 36054466#1 36054466#2 36054466#3 36054466#4 641705063#2 641705063#3 641705064#0 641705064#1 436291031 436291016#0 436291016#1 436291016#2 436291016#3 5955850#0 5955850#1 5955850#2"/>
    </vehicle>
    <vehicle id="bike50" type="bike_bicycle" depart="478.77" departLane="best">
        <route edges="-419814433#1 -578934700#1 -578934700#0 5962129#1 5962129#2 5962129#3 5962129#4 -578942358 578942360#1 578942361#1"/>
    </vehicle>
    <vehicle id="bike51" type="bike_bicycle" depart="488.35" departLane="best">
        <route edges="578934724#0 -578934719 641705064#1 436291031 436291062 436291064#0 436291064#1 642337372 641705146#0 641705146#1 -578605862#2 578934691#0"/>
    </vehicle>
    <vehicle id="bike52" type="bike_bicycle" depart="497.92" departLane="best" departSpeed="max">
        <route edges="-593766962#1 -593766960 -593766963 -593766964 -593766965 -5962129#5 -5962129#4 -5962129#3 -5962129#2 419814433#2 578934726 578934724#0 578934723 623099335 578934722"/>
    </vehicle>
    <vehicle id="bike53" type="bike_bicycle" depart="507.50" departLane="best" departSpeed="max">
        <route edges="-578934717#1 578934718#3 436291016#1 436291016#2 436291016#3 436291016#4 436291016#5 436291016#6"/>
    </vehicle>
    <vehicle id="bike55" type="bike_bicycle" depart="526.65" departLane="best">
        <route edges="5962129#5 593766965 578942357 -578942357 -593766965 -5962129#5 -5962129#4 -5962129#3 -5962129#2 -5962129#1 -5962129#0"/>
    </vehicle>
    <vehicle id="bike56" type="bike_bicycle" depart="536.23" departLane="best" departSpeed="max">
        <route edges="436291021#0 -593766963 -593766964 -593766965 -5962129#5 -578942358"/>
    </vehicle>
    <vehicle id="bike57" type="bike_bicycle" depart="545.80" departLane="best">
        <route edges="641705063#0 641705063#1 641705063#2 641705063#3 641705064#0 641705064#1 436291031 436291016#0 436291016#1 436291016#2 436291016#3 5962129#0 5962129#1"/>
    </vehicle>
    <vehicle id="bike58" type="bike_bicycle" depart="555.38" departLane="best">
        <route edges="-5962129#0 5955850#0 5955850#1 -578934709#0 578934709#0 -5955850#1 -5955850#0 5962129#0 5962129#1 419814433#2 578934726 578934724#0 578934723 623099335 578934722"/>
    </vehicle>
    <vehicle id="bike59" type="bike_bicycle" depart="564.95" departLane="best" departSpeed="max">
        <route edges="578934711 6024091#5 642337372 642337373 436291011 436291010 436291062 436291064#0 578934717#0 -578934718#2"/>
    </vehicle>
    <vehicle id="bike60" type="bike_bicycle" depart="574.53" departLane="best">
        <route edges="578942367#2 -578942367#2 578942368#1 578942371#1 -578942370 641705063#3 641705064#0 641705064#1 436291031 436291062 436291064#0 436291064#1 642337372 641705146#0 641705146#1 -578605862#2 578934691#0 578934691#1"/>
    </vehicle>
    <vehicle id="bike61" type="bike_bicycle" depart="584.10" departLane="best">
        <route edges="578942369#1 578942372#2 -578942371#2 -578942370 641705063#3 641705064#0 641705064#1 436291031 436291062 436291064#0 436291064#1 642337372 641705146#0 641705146#1 -578605862#2 578934691#0 578934690"/>
    </vehicle>
    <vehicle id="bike62" type="bike_bicycle" depart="593.68" departLane="best">
        <route edges="-184711458 89927838#3 36054466#0 36054466#1"/>
    </vehicle>
    <vehicle id="bike63" type="bike_bicycle" depart="603.25" departLane="best">
        <route edges="-419814433#4 419814433#4 641705064#0"/>
    </vehicle>
    <vehicle id="bike64" type="bike_bicycle" depart="612.83" departLane="best">
        <route edges="5962129#5 593766965 593766964 593766963 593766960 593766962#0"/>
    </vehicle>
    <vehicle id="bike65" type="bike_bicycle" depart="622.40" departLane="best">
        <route edges="-5962129#2 -5962129#1 -5962129#0 5955850#0 6024091#2 6024091#3 6024091#5 642337372 641705146#0 641705146#1 -578605862#2 578605861#0 -578605861#2"/>
    </vehicle>
    <vehicle id="bike66" type="bike_bicycle" depart="631.98" departLane="best">
        <route edges="5962129#5 593766965 593766964 593766963 593766961 436291018 641705063#0 641705063#1 641705063#2 641705063#3 641705064#0 641705064#1 436291031 436291062 436291064#0 436291064#1 642337372 641705146#0 641705146#1"/>
    </vehicle>
    <vehicle id="bike67" type="bike_bicycle" depart="641.56" departLane="best">
        <route edges="-578934700#0 5962129#1 419814433#2 419814433#4 641705064#0 641705064#1 436291031 436291062"/>
    </vehicle>
    <vehicle id="bike69" type="bike_bicycle" depart="660.71" departLane="best">
        <route edges="578942368#0 578942368#1 578942371#1 -578942370 641705063#3 641705064#0 641705064#1 436291031 436291016#0 436291016#1 436291016#2 -578934714"/>
    </vehicle>
    <vehicle id="bike70" type="bike_bicycle" depart="670.28" departLane="best">
        <route edges="436291018 641705063#0 641705063#1 641705063#2 641705063#3 641705064#0 641705064#1 436291031 436291016#0 436291016#1 436291016#2 436291016#3 436291016#4 436291016#5 436291016#6 436291016#7 436291016#8 578934698"/>
    </vehicle>
    <vehicle id="bike71" type="bike_bicycle" depart="679.86" departLane="best" departSpeed="max">
        <route edges="-593766962#1 -593766960 -593766963 -593766964 -593766965 -5962129#5 -5962129#4 -5962129#3 -5962129#2 -5962129#1 578934700#0 578934700#1 419814433#1 5962129#2"/>
    </vehicle>
    <vehicle id="bike72" type="bike_bicycle" depart="689.43" departLane="best">
        <route edges="436291011 436291010 436291062 436291064#0 436291064#1 642337372 642337373 234953562 634644489 36054466#0 36054466#1 36054466#2 -578942365 -578942367#2 -578942367#1 -578942367#0 -578942371#2"/>
    </vehicle>
    <vehicle id="bike74" type="bike_bicycle" depart="708.58" departLane="best" departSpeed="max">
        <route edges="-578942364 419814433#4 641705065 634644489 278328405#0"/>
    </vehicle>
    <vehicle id="bike75" type="bike_bicycle" depart="718.16" departLane="best" departSpeed="max">
        <route edges="89927838#0 89927838#3 36054466#0 36054466#1 36054466#2 36054466#3 36054466#4 641705063#2 641705063#3 -419814433#4 578934726 578934724#0"/>
    </vehicle>
    <vehicle id="bike76" type="bike_bicycle" depart="727.74" departLane="best">
        <route edges="436291016#1 436291016#2 436291016#3 5955850#0 6024091#2 6024091#3 6024091#5 642337372 641705146#0 578934689"/>
    </vehicle>
    <vehicle id="bike77" type="bike_bicycle" depart="737.31" departLane="best">
        <route edges="-578934718#1 578934718#1 578934718#2 -578934717#0 436291064#1 642337372 642337373 234953562 634644489 36054466#0 36054466#1 36054466#2 -578942365 -578942367#2 -578942367#1 -578942367#0 -578942372#2"/>
    </vehicle>
    <vehicle id="bike78" type="bike_bicycle" depart="746.89" departLane="best" departSpeed="max">
        <route edges="184711452 436291020#1 436291020#2 436291019 642751754#0 -184711458 89927838#3 36054466#0 36054466#1 36054466#2 36054466#3 36054466#4 641705063#2 641705063#3 641705064#0 641705064#1 436291031 436291016#0 436291016#1 436291016#2 436291016#3 5955850#0 6024091#2 578934712"/>
    </vehicle>
    <vehicle id="bike79" type="bike_bicycle" depart="756.46" departLane="best">
        <route edges="-578942371#0 578942372#0 578942372#1 -578942372#1"/>
    </vehicle>
    <vehicle id="bike81" type="bike_bicycle" depart="775.61" departLane="best">
        <route edges="-578942371#0 578942371#0 578942371#1 -578942370 641705063#3 641705065 634644489"/>
    </vehicle>
    <vehicle id="bike82" type="bike_bicycle" depart="785.19" departLane="best">
        <route edges="5962129#1 419814433#2 419814433#4 641705064#0 641705064#1 436291031 436291062 436291064#0 436291064#1 642337372 641705146#0 641705146#1 -578605862#2"/>
    </vehicle>
    <vehicle id="bike84" type="bike_bicycle" depart="804.34" departLane="best">
        <route edges="-578942367#0 -578942371#2 -578942370 641705063#3 641705064#0 641705064#1 436291031 436291016#0 436291016#1 -578934715"/>
    </vehicle>
    <vehicle id="bike85" type="bike_bicycle" depart="813.91" departLane="best">
        <route edges="641705065 634644489 36054466#0 36054466#1 36054466#2 36054466#3 36054466#4 641705063#2 641705063#3 641705064#0 641705064#1 436291031 436291016#0 436291016#1 436291016#2 436291016#3 436291016#4 436291016#5 436291016#6 436291016#7 578934701"/>
    </vehicle>
    <vehicle id="bike87" type="bike_bicycle" depart="833.07" departLane="best">
        <route edges="578942372#2 578942367#0 578942367#1 -578942367#1"/>
    </vehicle>
    <vehicle id="bike88" type="bike_bicycle" depart="842.64" departLane="best" departSpeed="max">
        <route edges="-578934709#1 -5955850#1 -5955850#0 436291016#4 436291016#5 436291016#6"/>
    </vehicle>
    <vehicle id="bike89" type="bike_bicycle" depart="852.22" departLane="best">
        <route edges="436291011 436291010 436291016#0 436291016#1 436291016#2 436291016#3 5962129#0 5962129#1 5962129#2 5962129#3 5962129#4 5962129#5 593766965 593766964 593766963 593766961 436291018 436291020#0 436291020#1 436291020#2"/>
    </vehicle>
    <vehicle id="bike90" type="bike_bicycle" depart="861.79" departLane="best">
        <route edges="578942361#1 578942361#2 593766965 593766964 593766963 593766961 436291018 641705063#0 578942355 578942354#0"/>
    </vehicle>
    <vehicle id="bike91" type="bike_bicycle" depart="871.37" departLane="best">
        <route edges="89922370#5 641705063#0 641705063#1 641705063#2 641705063#3 -419814433#4 -419814433#2 -419814433#1 -578934700#1"/>
    </vehicle>
    <vehicle id="bike92" type="bike_bicycle" depart="880.94" departLane="best" departSpeed="max">
        <route edges="419814433#0 419814433#1 419814433#2 419814433#4 641705065 634644489 36054466#0 36054466#1 36054466#2"/>
    </vehicle>
    <vehicle id="bike93" type="bike_bicycle" depart="890.52" departLane="best">
        <route edges="5962129#1 5962129#2 5962129#3 5962129#4 5962129#5 593766965 593766964 578942356 -578942356 -593766964"/>
    </vehicle>
    <vehicle id="bike94" type="bike_bicycle" depart="900.09" departLane="best" departSpeed="max">
        <route edges="-578942357 593766964 593766963 593766961 436291018"/>
    </vehicle>
    <vehicle id="bike95" type="bike_bicycle" depart="909.67" departLane="best">
        <route edges="436291010 436291016#0 436291016#1 436291016#2 436291016#3 5962129#0 5962129#1 5962129#2 5962129#3 5962129#4 5962129#5 593766965 578942357 -578942357 -593766965 -5962129#5 -5962129#4 -5962129#3"/>
    </vehicle>
    <vehicle id="bike96" type="bike_bicycle" depart="919.24" departLane="best">
        <route edges="-578942372#1 578942368#0 578942368#1 578942371#1 -578942370 641705063#3"/>
    </vehicle>
    <vehicle id="bike97" type="bike_bicycle" depart="928.82" departLane="best">
        <route edges="436291016#2 436291016#3 5955850#0 5955850#1 5955850#2"/>
    </vehicle>
    <vehicle id="bike98" type="bike_bicycle" depart="938.40" departLane="best" departSpeed="max">
        <route edges="578605862#0 578605861#0 -578605861#0"/>
    </vehicle>
    <vehicle id="bike99" type="bike_bicycle" depart="947.97" departLane="best">
        <route edges="89927838#3 36054466#0 36054466#1 36054466#2 36054466#3 36054466#4 36054466#5 36054466#6 36054466#7 36054466#8 36054466#9 5962129#4 5962129#5 593766965 593766964 593766963"/>
    </vehicle>
    <vehicle id="bike100" type="bike_bicycle" depart="957.55" departLane="best">
        <route edges="642337374#1 642337373 234953562 634644489 36054466#0 36054466#1 36054466#2 36054466#3 36054466#4 641705063#2 641705063#3"/>
    </vehicle>
    <vehicle id="bike101" type="bike_bicycle" depart="967.12" departLane="best">
        <route edges="5955850#0 5955850#1 -578934709#0 578934709#0 -5955850#1 -5955850#0 5962129#0 5962129#1 419814433#2 578934726 578934724#0 578934723 -578934723"/>
    </vehicle>
    <vehicle id="bike102" type="bike_bicycle" depart="976.70" departLane="best">
        <route edges="436291020#0 436291020#1 436291020#2 436291019 642751754#0 -184711458 89927838#3 36054466#0 36054466#1 36054466#2 -578942365 -578942367#2 -578942367#1 -578942367#0 -578942371#2"/>
    </vehicle>
    <vehicle id="bike103" type="bike_bicycle" depart="986.27" departLane="best" departSpeed="max">
        <route edges="419814433#0 419814433#1 419814433#2 419814433#4 641705064#0 641705064#1 436291031 436291062 436291064#0 436291064#1 642337372 641705146#0 641705146#1 -578605862#2 578605861#0 -578605861#2"/>
    </vehicle>
    <vehicle id="bike104" type="bike_bicycle" depart="995.85" departLane="best">
        <route edges="36054466#5 36054466#6 36054466#7 36054466#8 36054466#9 5962129#4 5962129#5 593766965 593766964 593766963 593766961 436291018 436291020#0 436291020#1 436291020#2 436291019 642751754#0 642751754#1"/>
    </vehicle>
    <vehicle id="bike105" type="bike_bicycle" depart="1005.42" departLane="best" departSpeed="max">
        <route edges="-593766962#1 -593766960 593766961 436291018 641705063#0 641705063#1 641705063#2 578942370"/>
    </vehicle>
    <vehicle id="bike109" type="bike_bicycle" depart="1043.73" departLane="best" departSpeed="max">
        <route edges="-578942331 36054466#1 36054466#2 36054466#3 36054466#4 641705063#2 641705063#3 641705065 634644489 -89927838#3 -89927838#0"/>
    </vehicle>
    <vehicle id="bike110" type="bike_bicycle" depart="1053.30" departLane="best">
        <route edges="642337374#1 642337373 436291011 436291010 436291016#0 436291016#1 436291016#2 436291016#3 5955850#0 5955850#1 578934709#1"/>
    </vehicle>
    <vehicle id="bike113" type="bike_bicycle" depart="1082.03" departLane="best" departSpeed="max">
        <route edges="436291021#0 -593766963 -593766964 -593766965 -5962129#5 -5962129#4 -5962129#3 -5962129#2 -5962129#1 -5962129#0 5955850#0 5955850#1"/>
    </vehicle>
    <vehicle id="bike114" type="bike_bicycle" depart="1091.60" departLane="best" departSpeed="max">
        <route edges="-578942334 578942335 -593766960 593766961 436291018 641705063#0 641705063#1 641705063#2 641705063#3 641705064#0 641705064#1 436291031 436291062 436291064#0 436291064#1 642337372"/>
    </vehicle>
    <vehicle id="bike115" type="bike_bicycle" depart="1101.18" departLane="best" departSpeed="max">
        <route edges="-578934699 -578934700#0 5962129#1 5962129#2 5962129#3 5962129#4 5962129#5 593766965 593766964 593766963 593766961 436291018 641705063#0 641705063#1 641705063#2 578942370 578942369#0 -578942367#0"/>
    </vehicle>
    <vehicle id="bike116" type="bike_bicycle" depart="1110.75" departLane="best" departSpeed="max">
        <route edges="578934709#0 -5955850#1 -5955850#0 5962129#0 5962129#1 5962129#2 5962129#3 5962129#4 5962129#5 593766965 593766964 593766963 593766961 436291018 641705063#0 578942355 578942354#0"/>
    </vehicle>
    <vehicle id="bike117" type="bike_bicycle" depart="1120.33" departLane="best">
        <route edges="-578942371#1 578942371#1 -578942370 641705063#3 641705064#0 641705064#1 436291031 436291016#0 436291016#1 436291016#2 436291016#3 5955850#0 6024091#2 578934712 578934713#0 578934713#1 -578934712"/>
    </vehicle>
    <vehicle id="bike118" type="bike_bicycle" depart="1129.90" departLane="best">
        <route edges="6024091#2 6024091#3 6024091#5 642337372 642337373 436291011 436291010 436291016#0 436291016#1 436291016#2 436291016#3 5962129#0 5962129#1 5962129#2 5962129#3 5962129#4 5962129#5 593766965 593766964 578942356 -578942356 -593766964"/>
    </vehicle>
    <vehicle id="bike120" type="bike_bicycle" depart="1149.06" departLane="best">
        <route edges="436291010 436291016#0 436291016#1 436291016#2 436291016#3 5955850#0 5955850#1 578934709#1"/>
    </vehicle>
    <vehicle id="bike121" type="bike_bicycle" depart="1158.63" departLane="best" departSpeed="max">
        <route edges="573865733#0 573865733#1 436291013 234953562 -641705065 641705064#0 641705064#1"/>
    </vehicle>
    <vehicle id="bike122" type="bike_bicycle" depart="1168.21" departLane="best" departSpeed="max">
        <route edges="-578942364 419814433#4 641705065 634644489 36054466#0 36054466#1 36054466#2 36054466#3 36054466#4 36054466#5 578942361#0"/>
    </vehicle>
    <vehicle id="bike124" type="bike_bicycle" depart="1187.36" departLane="best">
        <route edges="578934719 578934724#2 -578934726 419814433#4 641705065 634644489 -89927838#3 -89927838#0"/>
    </vehicle>
    <vehicle id="bike125" type="bike_bicycle" depart="1196.93" departLane="best">
        <route edges="-5962129#4 -5962129#3 -5962129#2 419814433#2 419814433#4 641705065 634644489 36054466#0 36054466#1 36054466#2 -578942365 -578942367#2 -578942367#1 -578942367#0 578942367#0"/>
    </vehicle>
    <vehicle id="bike127" type="bike_bicycle" depart="1216.08" departLane="best">
        <route edges="89927838#3"/>
    </vehicle>
    <vehicle id="bike129" type="bike_bicycle" depart="1235.23" departLane="best" departSpeed="max">
        <route edges="-593766962#1 -593766960 593766961 436291018 641705063#0 641705063#1 641705063#2 641705063#3 641705064#0 641705064#1"/>
    </vehicle>
    <vehicle id="bike130" type="bike_bicycle" depart="1244.81" departLane="best" departSpeed="max">
        <route edges="6024091#0 -5955850#0 5962129#0 5962129#1 5962129#2 5962129#3"/>
    </vehicle>
    <vehicle id="bike131" type="bike_bicycle" depart="1254.39" departLane="best">
        <route edges="36054466#3 36054466#4 641705063#2 641705063#3 641705064#0 641705064#1 436291031 436291016#0 -578934718#3"/>
    </vehicle>
    <vehicle id="bike132" type="bike_bicycle" depart="1263.96" departLane="best">
        <route edges="593766963 593766961 436291018 641705063#0 641705063#1 36054466#5 578942361#0 578942361#1 578942360#0 578942358"/>
    </vehicle>
    <vehicle id="bike133" type="bike_bicycle" depart="1273.54" departLane="best" departSpeed="max">
        <route edges="578934711 6024091#5 642337372 642337373 234953562 634644489 278328405#0 642751754#0 642751754#1"/>
    </vehicle>
    <vehicle id="bike134" type="bike_bicycle" depart="1283.11" departLane="best">
        <route edges="578934718#0 -578934718#0 578934718#2 578934718#3 436291016#1 436291016#2 436291016#3 5962129#0 5962129#1 5962129#2 5962129#3 5962129#4 5962129#5 593766965 593766964 593766963 593766961 436291018 436291020#0 -184711452"/>
    </vehicle>