<?xml version="1.0" encoding="UTF-8"?>

<!-- generated on 06/08/20 17:40:01 by Eclipse SUMO duarouter Version 1.6.0
<configuration xmlns:xsi="http://www.w3.org/2001/XMLSchema-instance" xsi:noNamespaceSchemaLocation="http://sumo.dlr.de/xsd/duarouterConfiguration.xsd">

    <input>
        <net-file value="osm.net.xml"/>
        <route-files value="osm.bicycle.trips.xml"/>
    </input>

    <output>
        <output-file value="osm.bicycle.rou.xml"/>
        <alternatives-output value="osm.bicycle.rou.alt.xml"/>
    </output>

    <time>
        <begin value="0"/>
        <end value="1800.0"/>
    </time>

    <report>
        <no-warnings value="true"/>
        <ignore-errors value="true"/>
        <no-step-log value="true"/>
    </report>

</configuration>
-->

<routes xmlns:xsi="http://www.w3.org/2001/XMLSchema-instance" xsi:noNamespaceSchemaLocation="http://sumo.dlr.de/xsd/routes_file.xsd">
    <vType id="bike_bicycle" vClass="bicycle"/>
    <vehicle id="bike0" type="bike_bicycle" depart="0.00" departLane="best">
        <route edges="578934718#2 -578934717#0 436291064#1 642337372 642337373 234953562 -641705065 -419814433#4 -419814433#2 -419814433#1 -419814433#0"/>
    </vehicle>
    <vehicle id="bike1" type="bike_bicycle" depart="10.00" departLane="best">
        <route edges="-578942372#1"/>
    </vehicle>
    <vehicle id="bike2" type="bike_bicycle" depart="20.00" departLane="best">
        <route edges="578942367#0 578942367#1 578942367#2 578942365 36054466#3 36054466#4 36054466#5 36054466#6 36054466#7 36054466#8 36054466#9 5962129#4 5962129#5 578942357"/>
    </vehicle>
    <vehicle id="bike4" type="bike_bicycle" depart="40.00" departLane="best" departSpeed="max">
        <route edges="419814433#0 -578934700#1 578934700#1 -419814433#0"/>
    </vehicle>
    <vehicle id="bike5" type="bike_bicycle" depart="50.00" departLane="best" departSpeed="max">
        <route edges="-578942364 419814433#4 641705064#0 436291031 436291062 436291064#1 642337372 641705146#0 578934689"/>
    </vehicle>
    <vehicle id="bike7" type="bike_bicycle" depart="70.00" departLane="best">
        <route edges="578934722 -578934723 578934724#2 -578934726 -419814433#2 -419814433#1 -578934700#1 578934699"/>
    </vehicle>
    <vehicle id="bike8" type="bike_bicycle" depart="80.00" departLane="best" departSpeed="max">
        <route edges="-578942364 419814433#4 641705064#0 436291031 436291062 578934717#0 578934717#1"/>
    </vehicle>
    <vehicle id="bike9" type="bike_bicycle" depart="90.00" departLane="best" departSpeed="max">
        <route edges="578942375 436291020#2 436291019 642751754#0 -184711458 -89927838#0 89927838#0 -184711460"/>
    </vehicle>
    <vehicle id="bike10" type="bike_bicycle" depart="100.00" departLane="best" departSpeed="max">
        <route edges="578942375 436291020#2 436291019 642751754#0 -184711458 89927838#3 36054466#0 36054466#1 36054466#3 36054466#4 36054466#5 36054466#6 36054466#7 36054466#8 36054466#9 5962129#4 -578942358 578942360#1"/>
    </vehicle>
    <vehicle id="bike11" type="bike_bicycle" depart="110.00" departLane="best">
        <route edges="-5962129#4 -5962129#3 -5962129#2 419814433#2 578934726 578934724#0 578934723 -578934723"/>
    </vehicle>
    <vehicle id="bike12" type="bike_bicycle" depart="120.00" departLane="best">
        <route edges="642751754#0 -184711458 89927838#3 36054466#0 36054466#1 36054466#3"/>
    </vehicle>
    <vehicle id="bike13" type="bike_bicycle" depart="130.00" departLane="best" departSpeed="max">
        <route edges="-578934699 578934700#1 -578934700#1"/>
    </vehicle>
    <vehicle id="bike14" type="bike_bicycle" depart="140.00" departLane="best">
        <route edges="5962129#3 5962129#4 5962129#5 gneE0 593766961 436291018 641705063#0 641705063#1 641705063#2 641705063#3 641705064#0 436291031 436291062 578934717#0 -578934718#2 578934718#0"/>
    </vehicle>
    <vehicle id="bike15" type="bike_bicycle" depart="150.00" departLane="best" departSpeed="max">
        <route edges="578942375 436291020#2 436291019 642751754#0 -184711458 89927838#3 36054466#0 36054466#1 36054466#3 36054466#4 641705063#2 641705063#3 -419814433#4 578942364"/>
    </vehicle>
    <vehicle id="bike17" type="bike_bicycle" depart="170.00" departLane="best">
        <route edges="36054466#1 36054466#3 36054466#4 641705063#2 641705063#3 -419814433#4 -419814433#2 -419814433#1 -578934700#1 578934700#1"/>
    </vehicle>
    <vehicle id="bike18" type="bike_bicycle" depart="180.00" departLane="best">
        <route edges="5955850#0 5955850#1 -578934709#0 578934709#0 -5955850#1 -5955850#0 5962129#0 419814433#2 419814433#4 641705064#0 578934719"/>
    </vehicle>
    <vehicle id="bike19" type="bike_bicycle" depart="190.00" departLane="best">
        <route edges="6024091#2 578934712 578934713#0 578934713#1"/>
    </vehicle>
    <vehicle id="bike20" type="bike_bicycle" depart="200.00" departLane="best">
        <route edges="578942360#1 578942361#1 578942360#0 578942358 -5962129#4 -5962129#3 -5962129#2 419814433#2 419814433#4 641705064#0 436291031 436291062 436291064#1 642337372 641705146#0 641705146#1 -578605862#2 578605861#0 -578605861#0"/>
    </vehicle>
    <vehicle id="bike21" type="bike_bicycle" depart="210.00" departLane="best">
        <route edges="-578942365 578942371#0 578942371#1 -578942370 641705063#3 641705065 634644489 -89927838#3 -89927838#0"/>
    </vehicle>
    <vehicle id="bike23" type="bike_bicycle" depart="230.00" departLane="best">
        <route edges="-578934700#1 578934700#1 419814433#1 5962129#2 5962129#3 5962129#4 5962129#5 578942357 -578942357 -593766965 -5962129#4"/>
    </vehicle>
    <vehicle id="bike24" type="bike_bicycle" depart="240.00" departLane="best">
        <route edges="578934718#1 578934718#2 -578934717#0 436291064#1 642337372 642337373 234953562 634644489 36054466#0 36054466#1 36054466#3 36054466#4 36054466#5 36054466#6 36054466#7 36054466#8"/>
    </vehicle>
    <vehicle id="bike25" type="bike_bicycle" depart="250.00" departLane="best">
        <route edges="36054466#0 36054466#1 -578942365 -578942367#2 -578942367#1 -578942367#0 -578942371#2"/>
    </vehicle>
    <vehicle id="bike26" type="bike_bicycle" depart="260.00" departLane="best">
        <route edges="-578942372#0 578942371#0 578942371#1 -578942370 641705063#3 641705064#0 436291031 436291062 436291064#1 642337372 641705146#0 641705146#1"/>
    </vehicle>
    <vehicle id="bike27" type="bike_bicycle" depart="270.00" departLane="best">
        <route edges="578934722 -578934723 578934724#2 578934724#0 -578934719 436291031 436291062 578934717#0 -578934718#2 -578934718#1 578934718#1"/>
    </vehicle>
    <vehicle id="bike28" type="bike_bicycle" depart="280.00" departLane="best" departSpeed="max">
        <route edges="-578942331 36054466#1 36054466#3 36054466#4 641705063#2 641705063#3 -419814433#4 578942364"/>
    </vehicle>
    <vehicle id="bike29" type="bike_bicycle" depart="290.00" departLane="best">
        <route edges="-578934726 -419814433#2 -419814433#1 -419814433#0 419814433#0 419814433#1 419814433#2"/>
    </vehicle>
    <vehicle id="bike30" type="bike_bicycle" depart="300.00" departLane="best">
        <route edges="89927838#3 36054466#0 36054466#1 36054466#3 36054466#4 641705063#2 641705063#3 -419814433#4 578934726"/>
    </vehicle>
    <vehicle id="bike32" type="bike_bicycle" depart="320.00" departLane="best">
        <route edges="5962129#2 5962129#3 5962129#4 5962129#5 gneE0 593766961 436291018 641705063#0 641705063#1 641705063#2 578942370"/>
    </vehicle>
    <vehicle id="bike33" type="bike_bicycle" depart="330.00" departLane="best">
        <route edges="-578942365 578942371#0 578942371#1 -578942370 641705063#3 -419814433#4 -419814433#2 -419814433#1"/>
    </vehicle>
    <vehicle id="bike34" type="bike_bicycle" depart="340.00" departLane="best" departSpeed="max">
        <route edges="-5955850#2 -5955850#1 -5955850#0 5962129#0 5962129#2 5962129#3 5962129#4 5962129#5 578942357 -578942357 -593766965 -5962129#4 -5962129#3 -5962129#2"/>
    </vehicle>
    <vehicle id="bike35" type="bike_bicycle" depart="350.00" departLane="best">
        <route edges="-578942358 578942360#1 578942361#1 578942360#0 578942358 -5962129#4 -5962129#3 -5962129#2 419814433#2 419814433#4 641705064#0 436291031 436291062 436291064#1 642337372"/>
    </vehicle>
    <vehicle id="bike36" type="bike_bicycle" depart="360.00" departLane="best">
        <route edges="6024091#5 642337372 642337373 234953562 634644489 278328405#0 278328405#1"/>
    </vehicle>
    <vehicle id="bike37" type="bike_bicycle" depart="370.00" departLane="best">
        <route edges="578934723 -578934723 578934724#2 578934724#0 -578934719 436291031 436291062 436291064#1 642337372 642337373 436291011"/>
    </vehicle>
    <vehicle id="bike38" type="bike_bicycle" depart="380.00" departLane="best">
        <route edges="641705065 634644489 36054466#0 36054466#1 36054466#3 36054466#4 641705063#2 641705063#3 641705064#0 436291031"/>
    </vehicle>
    <vehicle id="bike39" type="bike_bicycle" depart="390.00" departLane="best">
        <route edges="-578942371#2 -578942371#1 -578942371#0 578942365 36054466#3 36054466#4 36054466#5 36054466#6 36054466#7 36054466#8 36054466#9 5962129#4 5962129#5 578942357 -578942357 -593766965"/>
    </vehicle>
    <vehicle id="bike40" type="bike_bicycle" depart="400.00" departLane="best" departSpeed="max">
        <route edges="578934692 642337374#1 642337373 234953562 -641705065 -419814433#4 -419814433#2 -5962129#1"/>
    </vehicle>
    <vehicle id="bike41" type="bike_bicycle" depart="410.00" departLane="best" departSpeed="max">
        <route edges="578934709#0 -5955850#1 6024091#2 6024091#3 6024091#5 642337372 642337373 234953562 634644489"/>
    </vehicle>
    <vehicle id="bike42" type="bike_bicycle" depart="420.00" departLane="best">
        <route edges="36054466#6 36054466#7 36054466#8 36054466#9 5962129#4 5962129#5 gneE0 593766961 436291018 641705063#0 641705063#1 641705063#2 578942370 578942369#0 578942369#1 -578942372#1"/>
    </vehicle>
    <vehicle id="bike43" type="bike_bicycle" depart="430.00" departLane="best">
        <route edges="gneE1 -593766965 -5962129#4 -5962129#3 -5962129#2 419814433#2 419814433#4 641705064#0 436291031 436291062 436291064#1 642337372 641705146#0 641705146#1 -578605862#2 578934691#0 578934690"/>
    </vehicle>
    <vehicle id="bike44" type="bike_bicycle" depart="440.00" departLane="best" departSpeed="max">
        <route edges="-578934699 578934700#1 419814433#1 419814433#2 419814433#4 641705064#0 436291031 436291062 436291064#1 642337372 641705146#0 641705146#1 -578605862#2 578605861#0 -578605861#0"/>
    </vehicle>
    <vehicle id="bike45" type="bike_bicycle" depart="450.00" departLane="best" departSpeed="max">
        <route edges="-578934709#1 -5955850#1 -5955850#0 5962129#0 419814433#2 578934726 578934724#0 578934723"/>
    </vehicle>
    <vehicle id="bike46" type="bike_bicycle" depart="460.00" departLane="best">
        <route edges="578942372#0 578942368#0 578942368#1 578942371#1 -578942370 641705063#3 641705064#0 436291031 436291016#0 436291016#4 436291016#9"/>
    </vehicle>
    <vehicle id="bike48" type="bike_bicycle" depart="480.00" departLane="best">
        <route edges="gneE1 -593766965 -5962129#4 -5962129#3 -5962129#2 419814433#2 419814433#4 641705064#0 436291031 436291062 436291064#1 642337372 641705146#0 641705146#1 -578605862#2 578934691#0 578934691#1"/>
    </vehicle>
    <vehicle id="bike49" type="bike_bicycle" depart="490.00" departLane="best">
        <route edges="89922370#5 641705063#0 641705063#1 36054466#5 36054466#6 36054466#7 36054466#8 578942362 5962129#3"/>
    </vehicle>
    <vehicle id="bike50" type="bike_bicycle" depart="500.00" departLane="best">
        <route edges="-419814433#1 -419814433#0 419814433#0 419814433#1 5962129#2 5962129#3 5962129#4 5962129#5 gneE0 593766961 436291018 641705063#0 641705063#1 36054466#5 36054466#6 36054466#7 578942363"/>
    </vehicle>
    <vehicle id="bike51" type="bike_bicycle" depart="510.00" departLane="best">
        <route edges="578942354#0 578942354#1 -578942355 641705063#1 641705063#2 641705063#3 641705064#0 436291031 436291016#0 436291016#4 578934698"/>
    </vehicle>
    <vehicle id="bike52" type="bike_bicycle" depart="520.00" departLane="best">
        <route edges="-578942372#0 578942371#0 578942371#1 -578942370 641705063#3 -419814433#4 578934726"/>
    </vehicle>
    <vehicle id="bike53" type="bike_bicycle" depart="530.00" departLane="best" departSpeed="max">
        <route edges="-578934709#1 -5955850#1 -5955850#0 5962129#0 5962129#2 5962129#3 5962129#4 5962129#5 gneE0 593766961 436291018 436291020#0 436291020#2 436291019"/>
    </vehicle>
    <vehicle id="bike55" type="bike_bicycle" depart="550.00" departLane="best">
        <route edges="6024091#5 642337372 642337373 234953562 -641705065 -419814433#4 -419814433#2 -5962129#1"/>
    </vehicle>
    <vehicle id="bike56" type="bike_bicycle" depart="560.00" departLane="best" departSpeed="max">
        <route edges="436291021#0 593766961 436291018 641705063#0 641705063#1 641705063#2 578942370 578942369#0 -578942367#0"/>
    </vehicle>
    <vehicle id="bike57" type="bike_bicycle" depart="570.00" departLane="best">
        <route edges="641705064#0 578934719 578934724#2 -578934726 -419814433#2 5962129#2 5962129#3 5962129#4 5962129#5"/>
    </vehicle>
    <vehicle id="bike58" type="bike_bicycle" depart="580.00" departLane="best">
        <route edges="-593766965 -5962129#4 -5962129#3 -5962129#2 419814433#2 578934726 578934724#0 578934724#2"/>
    </vehicle>
    <vehicle id="bike59" type="bike_bicycle" depart="590.00" departLane="best">
        <route edges="578934713#0 578934713#1 -578934712 6024091#3 6024091#5 642337372 642337373 234953562 -641705065 641705064#0 578934719 578934723 -578934723"/>
    </vehicle>
    <vehicle id="bike60" type="bike_bicycle" depart="600.00" departLane="best">
        <route edges="578942369#0 -578942367#0 -578942371#2 -578942370 641705063#3 -419814433#4 -419814433#2 -419814433#1 -578934700#1 578934699"/>
    </vehicle>
    <vehicle id="bike61" type="bike_bicycle" depart="610.00" departLane="best">
        <route edges="578942371#0 578942371#1 -578942370 641705063#3 641705064#0 436291031 436291062 436291064#1 642337372 641705146#0 641705146#1 -578605862#2 578934691#0 578934691#1"/>
    </vehicle>
    <vehicle id="bike62" type="bike_bicycle" depart="620.00" departLane="best">
        <route edges="-184711458 89927838#3 36054466#0 36054466#1"/>
    </vehicle>
    <vehicle id="bike63" type="bike_bicycle" depart="630.00" departLane="best">
        <route edges="-419814433#2 -5962129#1 5955850#0 6024091#2 6024091#3 6024091#5 642337372 641705146#0"/>
    </vehicle>
    <vehicle id="bike64" type="bike_bicycle" depart="640.00" departLane="best">
        <route edges="623099335 578934722 -578934723 578934724#2 -578934726 -419814433#2 -5962129#1 5955850#0"/>
    </vehicle>
    <vehicle id="bike65" type="bike_bicycle" depart="650.00" departLane="best">
        <route edges="-5955850#0 5962129#0 419814433#2 419814433#4 641705064#0 436291031 436291062 436291064#1 642337372 641705146#0 641705146#1 -578605862#2 578605861#0 -578605861#2"/>
    </vehicle>
    <vehicle id="bike66" type="bike_bicycle" depart="660.00" departLane="best">
        <route edges="623099335 578934722 -578934723 578934724#2 578934724#0 -578934719 436291031 436291062 436291064#1 642337372 642337373"/>
    </vehicle>
    <vehicle id="bike69" type="bike_bicycle" depart="690.00" departLane="best">
        <route edges="578942369#1 578942372#2 -578942371#2 -578942370 641705063#3 641705064#0 436291031 436291062 578934717#0 -578934718#2 578934718#2 -578934717#0"/>
    </vehicle>
    <vehicle id="bike70" type="bike_bicycle" depart="700.00" departLane="best">
        <route edges="436291018 641705063#0 641705063#1 641705063#2 641705063#3 -419814433#4 -419814433#2 -419814433#1 -578934700#1 578934700#1"/>
    </vehicle>
    <vehicle id="bike71" type="bike_bicycle" depart="710.00" departLane="best">
        <route edges="-578942371#2 -578942371#1 -578942371#0 578942365 36054466#3 36054466#4 36054466#5 36054466#6 36054466#7 36054466#8 36054466#9 5962129#4 5962129#5"/>
    </vehicle>
    <vehicle id="bike72" type="bike_bicycle" depart="720.00" departLane="best" departSpeed="max">
        <route edges="419814433#0 419814433#1 5962129#2 5962129#3 5962129#4 5962129#5 gneE0 593766961 436291018 641705063#0 641705063#1 641705063#2 578942370 578942371#2 -578942371#2"/>
    </vehicle>
    <vehicle id="bike74" type="bike_bicycle" depart="740.00" departLane="best" departSpeed="max">
        <route edges="-578942357 gneE0 593766961 436291018 436291020#0 436291020#2 436291019 278328405#1"/>
    </vehicle>
    <vehicle id="bike75" type="bike_bicycle" depart="750.00" departLane="best">
        <route edges="gneE1 -593766965 -5962129#4 -5962129#3 -5962129#2 419814433#2 419814433#4 641705065 634644489 36054466#0 578942331"/>
    </vehicle>
    <vehicle id="bike76" type="bike_bicycle" depart="760.00" departLane="best">
        <route edges="419814433#4 641705064#0 436291031 436291062 436291064#1 642337372 641705146#0 641705146#1 -578605862#2 578934691#0 578934690"/>
    </vehicle>
    <vehicle id="bike77" type="bike_bicycle" depart="770.00" departLane="best">
        <route edges="-578934717#0 436291064#1 642337372 642337373 234953562 634644489 36054466#0 36054466#1 -578942365 -578942367#2 -578942367#1 -578942367#0 -578942372#2"/>
    </vehicle>
    <vehicle id="bike78" type="bike_bicycle" depart="780.00" departLane="best">
        <route edges="-5962129#3 -5962129#2 419814433#2 419814433#4 641705064#0 436291031 436291062 578934717#0"/>
    </vehicle>
    <vehicle id="bike79" type="bike_bicycle" depart="790.00" departLane="best">
        <route edges="-578942365 578942372#0 578942372#1 -578942372#1"/>
    </vehicle>
    <vehicle id="bike81" type="bike_bicycle" depart="810.00" departLane="best">
        <route edges="-578942365 -578942367#2 578942367#2 578942365 36054466#3 36054466#4 36054466#5 36054466#6 36054466#7 36054466#8 36054466#9 5962129#4 5962129#5 gneE0 593766961 436291018 641705063#0 641705063#1"/>
    </vehicle>
    <vehicle id="bike82" type="bike_bicycle" depart="820.00" departLane="best">
        <route edges="5962129#5 gneE0 593766961 436291018 641705063#0 641705063#1 641705063#2 641705063#3 641705064#0 436291031 436291062 436291064#1 642337372 641705146#0 641705146#1 -578605862#2 -578605862#0"/>
    </vehicle>
    <vehicle id="bike83" type="bike_bicycle" depart="830.00" departLane="best">
        <route edges="-578942367#1 578942367#1 578942367#2 578942365 36054466#3 36054466#4 36054466#5 36054466#6 36054466#7 36054466#8 36054466#9 5962129#4 5962129#5 gneE0 593766961 436291018 641705063#0 578942355 578942354#0 578942354#1"/>
    </vehicle>
    <vehicle id="bike84" type="bike_bicycle" depart="840.00" departLane="best">
        <route edges="-578942358 578942360#1 578942361#1 578942360#0 578942358 -5962129#4 -5962129#3 -5962129#2 419814433#2 419814433#4 641705064#0 436291031 436291062 578934717#0 -578934718#2 -578934718#1 -578934718#0"/>
    </vehicle>
    <vehicle id="bike85" type="bike_bicycle" depart="850.00" departLane="best">
        <route edges="642337373 436291011 436291010 436291016#0 5955850#0 6024091#2 578934712 578934713#0"/>
    </vehicle>
    <vehicle id="bike86" type="bike_bicycle" depart="860.00" departLane="best">
        <route edges="436291018 641705063#0 641705063#1 641705063#2 578942370 -578942371#1 578942371#1"/>
    </vehicle>
    <vehicle id="bike87" type="bike_bicycle" depart="870.00" departLane="best" departSpeed="max">
        <route edges="578942375 436291020#2 436291019 642751754#0 -184711458 89927838#3 36054466#0 36054466#1 -578942365 -578942367#2"/>
    </vehicle>
    <vehicle id="bike88" type="bike_bicycle" depart="880.00" departLane="best" departSpeed="max">
        <route edges="-578934699 578934700#1 419814433#1 5962129#2 5962129#3 5962129#4 5962129#5 gneE0 593766961 436291018"/>
    </vehicle>
    <vehicle id="bike89" type="bike_bicycle" depart="890.00" departLane="best" departSpeed="max">
        <route edges="419814433#0 419814433#1 419814433#2 419814433#4 641705064#0 436291031 436291062 436291064#1"/>
    </vehicle>
    <vehicle id="bike90" type="bike_bicycle" depart="900.00" departLane="best">
        <route edges="578942365 36054466#3 36054466#4 36054466#5 36054466#6 36054466#7 36054466#8 36054466#9 5962129#4 5962129#5 gneE0 593766961 436291018 641705063#0 578942355"/>
    </vehicle>
    <vehicle id="bike91" type="bike_bicycle" depart="910.00" departLane="best" departSpeed="max">
        <route edges="89927838#0 89927838#3 36054466#0 36054466#1 36054466#3 36054466#4 641705063#2 641705063#3 -419814433#4 -419814433#2 -419814433#1 -578934700#1"/>
    </vehicle>
    <vehicle id="bike92" type="bike_bicycle" depart="920.00" departLane="best">
        <route edges="36054466#7 36054466#8 36054466#9 5962129#4 5962129#5 gneE0 593766961 436291018 641705063#0 641705063#1 641705063#2 578942370 -578942371#1 -578942371#0 578942365 36054466#3"/>
    </vehicle>
    <vehicle id="bike93" type="bike_bicycle" depart="930.00" departLane="best">
        <route edges="6024091#2 6024091#3 6024091#5 642337372 642337373 436291011 436291010 436291016#0 5962129#0 5962129#2 5962129#3 5962129#4 5962129#5 578942357 -578942357 -593766965"/>
    </vehicle>
    <vehicle id="bike94" type="bike_bicycle" depart="940.00" departLane="best" departSpeed="max">
        <route edges="-578942344 89922370#5 436291020#0 436291020#2 436291019 278328405#1 436291029"/>
    </vehicle>
    <vehicle id="bike95" type="bike_bicycle" depart="950.00" departLane="best" departSpeed="max">
        <route edges="419814433#0 419814433#1 5962129#2 5962129#3 5962129#4 5962129#5 578942357 -578942357 -593766965 -5962129#4"/>
    </vehicle>
    <vehicle id="bike96" type="bike_bicycle" depart="960.00" departLane="best">
        <route edges="-578942370 641705063#3 641705064#0"/>
    </vehicle>
    <vehicle id="bike97" type="bike_bicycle" depart="970.00" departLane="best">
        <route edges="436291010 436291016#0 5962129#0 5962129#2 5962129#3"/>
    </vehicle>
    <vehicle id="bike98" type="bike_bicycle" depart="980.00" departLane="best" departSpeed="max">
        <route edges="578605862#0 578605861#0 -578605861#0"/>
    </vehicle>
    <vehicle id="bike99" type="bike_bicycle" depart="990.00" departLane="best">
        <route edges="gneE1 -593766965 -5962129#4 -5962129#3 -5962129#2 -5962129#1 5955850#0 5955850#1"/>
    </vehicle>
    <vehicle id="bike100" type="bike_bicycle" depart="1000.00" departLane="best" departSpeed="max">
        <route edges="89922370#0 89922370#5 641705063#0 641705063#1 641705063#2 641705063#3 641705065"/>
    </vehicle>
    <vehicle id="bike101" type="bike_bicycle" depart="1010.00" departLane="best">
        <route edges="5962129#3 5962129#4 5962129#5 gneE0 593766961 436291018 641705063#0 578942355 578942354#0 578942354#1 -578942355"/>
    </vehicle>
    <vehicle id="bike102" type="bike_bicycle" depart="1020.00" departLane="best">
        <route edges="436291020#0 436291020#2 436291019 642751754#0 -184711458 89927838#3 36054466#0 36054466#1 -578942365 578942372#0 -578942372#0"/>
    </vehicle>
    <vehicle id="bike103" type="bike_bicycle" depart="1030.00" departLane="best">
        <route edges="36054466#7 36054466#8 578942362 -5962129#2 419814433#2 419814433#4 641705064#0 436291031 436291062 436291064#1 642337372 641705146#0 641705146#1 -578605862#2 578605861#0 -578605861#2"/>
    </vehicle>
    <vehicle id="bike104" type="bike_bicycle" depart="1040.00" departLane="best">
        <route edges="36054466#1 36054466#3 36054466#4 641705063#2 641705063#3 641705065 634644489 -89927838#3 -89927838#0 89927838#0 89927838#3"/>
    </vehicle>
    <vehicle id="bike105" type="bike_bicycle" depart="1050.00" departLane="best">
        <route edges="-578942371#2 -578942371#1 578942371#1"/>
    </vehicle>
    <vehicle id="bike106" type="bike_bicycle" depart="1060.00" departLane="best">
        <route edges="436291013 436291011 436291010 436291016#0 436291016#4 436291016#9"/>
    </vehicle>
    <vehicle id="bike107" type="bike_bicycle" depart="1070.00" departLane="best">
        <route edges="642751754#0 -184711458 89927838#3 36054466#0 36054466#1 36054466#3 36054466#4 36054466#5 36054466#6 36054466#7 36054466#8 36054466#9 5962129#4 5962129#5 gneE0 593766960 593766962#0 -593766962#1 -593766960 gneE1"/>
    </vehicle>
    <vehicle id="bike109" type="bike_bicycle" depart="1090.00" departLane="best">
        <route edges="-578934723 578934724#2 -578934726 419814433#4 641705065 634644489 -89927838#3"/>
    </vehicle>
    <vehicle id="bike110" type="bike_bicycle" depart="1100.00" departLane="best" departSpeed="max">
        <route edges="89922370#0 89922370#5 641705063#0 641705063#1 641705063#2 641705063#3 641705064#0 436291031 436291062 578934717#0 -578934718#2 -578934718#1 578934716"/>
    </vehicle>
    <vehicle id="bike113" type="bike_bicycle" depart="1130.00" departLane="best">
        <route edges="436291031 436291016#0 5962129#0"/>
    </vehicle>
    <vehicle id="bike114" type="bike_bicycle" depart="1140.00" departLane="best">
        <route edges="-578934723 578934724#2 578934724#0 -578934719 436291031 436291062 436291064#1 642361032"/>
    </vehicle>
    <vehicle id="bike116" type="bike_bicycle" depart="1160.00" departLane="best" departSpeed="max">
        <route edges="578934711 6024091#5 642337372 642337373 436291011 436291010 436291016#0 5962129#0 5962129#2 5962129#3 5962129#4 5962129#5 578942357"/>
    </vehicle>
    <vehicle id="bike117" type="bike_bicycle" depart="1170.00" departLane="best">
        <route edges="-578942367#0 -578942371#2 -578942370 641705063#3 641705064#0 436291031 436291016#0 5955850#0 6024091#2 6024091#3 -578934711"/>
    </vehicle>
    <vehicle id="bike118" type="bike_bicycle" depart="1180.00" departLane="best">
        <route edges="641705063#0 641705063#1 36054466#5 36054466#6 36054466#7 36054466#8 36054466#9 5962129#4 5962129#5 578942357 -578942357 -593766965"/>
    </vehicle>
    <vehicle id="bike119" type="bike_bicycle" depart="1190.00" departLane="best" departSpeed="max">
        <route edges="578934711 6024091#5 642337372 642337373 234953562 -641705065 641705064#0 578934719 578934723 623099335 578934722"/>
    </vehicle>
    <vehicle id="bike120" type="bike_bicycle" depart="1200.00" departLane="best" departSpeed="max">
        <route edges="419814433#0 419814433#1 419814433#2 419814433#4 641705064#0 436291031 436291062 578934717#0 -578934718#2 -578934718#1 578934716"/>
    </vehicle>
    <vehicle id="bike121" type="bike_bicycle" depart="1210.00" departLane="best" departSpeed="max">
        <route edges="573865733#1 436291013 436291011 436291010 436291062 436291064#1 642337372 641705146#0 641705146#1"/>
    </vehicle>
    <vehicle id="bike122" type="bike_bicycle" depart="1220.00" departLane="best" departSpeed="max">
        <route edges="-578942357 gneE0 593766961 436291018 641705063#0 641705063#1 36054466#5 36054466#6 36054466#7 578942363"/>
    </vehicle>
    <vehicle id="bike123" type="bike_bicycle" depart="1230.00" departLane="best">
        <route edges="-578942367#1 -578942367#0 -578942371#2 -578942370 641705063#3 641705064#0 436291031 436291062 436291064#1 642337372 642337373 436291011"/>
    </vehicle>
    <vehicle id="bike124" type="bike_bicycle" depart="1240.00" departLane="best">
        <route edges="578934726 578934724#0 -578934719 436291031 436291062 436291064#1 642337372 642337373 234953562"/>
    </vehicle>
    <vehicle id="bike125" type="bike_bicycle" depart="1250.00" departLane="best" departSpeed="max">
        <route edges="-5955850#2 -5955850#1 6024091#2 6024091#3 6024091#5 642337372 642337373 234953562 634644489 36054466#0 36054466#1 -578942365 578942372#0 578942368#0"/>
    </vehicle>
    <vehicle id="bike127" type="bike_bicycle" depart="1270.00" departLane="best">
        <route edges="gneE1"/>
    </vehicle>
    <vehicle id="bike129" type="bike_bicycle" depart="1290.00" departLane="best">
        <route edges="-578942371#2 -578942370 641705063#3 641705064#0 436291031 436291062 436291064#1 642337372 641705146#0"/>
    </vehicle>
    <vehicle id="bike130" type="bike_bicycle" depart="1300.00" departLane="best">
        <route edges="623099335 578934722 -578934723 578934724#2 -578934726 -419814433#2 -5962129#1 5955850#0 6024091#2 6024091#3"/>
    </vehicle>
    <vehicle id="bike131" type="bike_bicycle" depart="1310.00" departLane="best">
        <route edges="36054466#0 36054466#1 36054466#3 36054466#4 641705063#2 641705063#3 641705064#0 578934719 578934724#2 -578934726"/>
    </vehicle>
    <vehicle id="bike132" type="bike_bicycle" depart="1320.00" departLane="best">
        <route edges="5955850#1 -578934709#0 578934709#0 -5955850#1 -5955850#0 5962129#0 5962129#2 5962129#3 5962129#4 5962129#5 gneE0 593766961 436291018 641705063#0 641705063#1 36054466#5 578942361#0"/>
    </vehicle>
    <vehicle id="bike133" type="bike_bicycle" depart="1330.00" departLane="best">
        <route edges="578934713#1 -578934712 6024091#3 6024091#5 642337372 642337373 234953562 634644489 -89927838#3 -89927838#0 89927838#0 89927838#3"/>
    </vehicle>
    <vehicle id="bike134" type="bike_bicycle" depart="1340.00" departLane="best">
        <route edges="578934723 -578934723 578934724#2 -578934726 419814433#4 641705065 634644489 -89927838#3 -184711460"/>
    </vehicle>
    <vehicle id="bike135" type="bike_bicycle" depart="1350.00" departLane="best">
        <route edges="593766960 593766962#0 -593766962#1 -593766960 593766961 436291018 641705063#0 641705063#1 641705063#2 641705063#3 641705065 634644489 -89927838#3"/>
    </vehicle>
    <vehicle id="bike136" type="bike_bicycle" depart="1360.00" departLane="best">
        <route edges="578934724#2 578934724#0 -578934719 436291031 436291062 436291064#1 642337372 641705146#0 641705146#1"/>
    </vehicle>