<?xml version="1.0" encoding="UTF-8"?>

<!-- generated on Thu Dec  5 17:00:15 2019 by Eclipse SUMO duarouter Version 1.3.1
<configuration xmlns:xsi="http://www.w3.org/2001/XMLSchema-instance" xsi:noNamespaceSchemaLocation="http://sumo.dlr.de/xsd/duarouterConfiguration.xsd">

    <input>
        <net-file value="osm.net.xml"/>
        <route-files value="osm.motorcycle.trips.xml"/>
    </input>

    <output>
        <output-file value="osm.motorcycle.trips.xml.tmp"/>
        <write-trips value="true"/>
    </output>

    <time>
        <begin value="0"/>
        <end value="3600.0"/>
    </time>

    <report>
        <no-warnings value="true"/>
        <ignore-errors value="true"/>
        <no-step-log value="true"/>
    </report>

</configuration>
-->

<routes xmlns:xsi="http://www.w3.org/2001/XMLSchema-instance" xsi:noNamespaceSchemaLocation="http://sumo.dlr.de/xsd/routes_file.xsd">
    <vType id="moto_motorcycle" vClass="motorcycle"/>
    <trip id="moto0" type="moto_motorcycle" depart="0.00" departLane="best" from="593766961" to="-419814433#1"/>
    <trip id="moto1" type="moto_motorcycle" depart="13.54" departLane="best" from="36054466#5" to="36054466#0"/>
    <trip id="moto2" type="moto_motorcycle" depart="27.08" departLane="best" from="5962129#5" to="5955850#0"/>
    <trip id="moto4" type="moto_motorcycle" depart="54.17" departLane="best" from="436291016#2" to="-419814433#2"/>
    <trip id="moto6" type="moto_motorcycle" depart="81.25" departLane="best" from="-419814433#4" to="234953562"/>
    <trip id="moto7" type="moto_motorcycle" depart="94.79" departLane="best" from="593766963" to="436291020#2"/>
    <trip id="moto9" type="moto_motorcycle" depart="121.87" departLane="best" from="641705063#0" to="-419814433#0"/>
    <trip id="moto10" type="moto_motorcycle" depart="135.42" departLane="best" from="641705063#0" to="5955850#2"/>
    <trip id="moto11" type="moto_motorcycle" depart="148.96" departLane="best" from="419814433#1" to="-5962129#5"/>
    <trip id="moto12" type="moto_motorcycle" depart="162.50" departLane="best" departSpeed="max" from="89922370#0" to="419814433#1"/>
    <trip id="moto15" type="moto_motorcycle" depart="203.12" departLane="best" from="641705063#0" to="5962129#1"/>
    <trip id="moto16" type="moto_motorcycle" depart="216.67" departLane="best" from="436291020#2" to="642751754#1"/>
    <trip id="moto17" type="moto_motorcycle" depart="230.21" departLane="best" from="436291011" to="436291029"/>
    <trip id="moto18" type="moto_motorcycle" depart="243.75" departLane="best" from="641705063#2" to="593766960"/>
    <trip id="moto19" type="moto_motorcycle" depart="257.29" departLane="best" from="641705065" to="436291062"/>
    <trip id="moto20" type="moto_motorcycle" depart="270.83" departLane="best" from="5962129#1" to="-419814433#4"/>
    <trip id="moto21" type="moto_motorcycle" depart="284.37" departLane="best" from="36054466#0" to="36054466#5"/>
    <trip id="moto22" type="moto_motorcycle" depart="297.92" departLane="best" from="-593766965" to="36054466#1"/>
    <trip id="moto23" type="moto_motorcycle" depart="311.46" departLane="best" from="-5955850#1" to="36054466#4"/>
    <trip id="moto24" type="moto_motorcycle" depart="325.00" departLane="best" from="593766961" to="436291010"/>
    <trip id="moto25" type="moto_motorcycle" depart="338.54" departLane="best" from="436291010" to="278328405#0"/>
    <trip id="moto26" type="moto_motorcycle" depart="352.08" departLane="best" from="36054466#4" to="642361032"/>
    <trip id="moto28" type="moto_motorcycle" depart="379.16" departLane="best" from="-5962129#5" to="5962129#1"/>
    <trip id="moto29" type="moto_motorcycle" depart="392.71" departLane="best" from="-5962129#4" to="436291011"/>
    <trip id="moto30" type="moto_motorcycle" depart="406.25" departLane="best" departSpeed="max" from="89927838#0" to="593766962#0"/>
    <trip id="moto31" type="moto_motorcycle" depart="419.79" departLane="best" from="436291031" to="5955850#0"/>
    <trip id="moto32" type="moto_motorcycle" depart="433.33" departLane="best" from="641705064#0" to="6024091#2"/>
    <trip id="moto33" type="moto_motorcycle" depart="446.87" departLane="best" from="36054466#0" to="-419814433#2"/>
    <trip id="moto34" type="moto_motorcycle" depart="460.41" departLane="best" from="36054466#9" to="36054466#2"/>
    <trip id="moto37" type="moto_motorcycle" depart="501.04" departLane="best" from="593766964" to="436291016#0"/>
    <trip id="moto38" type="moto_motorcycle" depart="514.58" departLane="best" departSpeed="max" from="642337374#0" to="436291016#5"/>
    <trip id="moto39" type="moto_motorcycle" depart="528.12" departLane="best" from="36054466#4" to="36054466#10"/>
    <trip id="moto40" type="moto_motorcycle" depart="541.66" departLane="best" from="436291031" to="36054466#2"/>
    <trip id="moto41" type="moto_motorcycle" depart="555.21" departLane="best" from="436291064#0" to="641705146#2"/>
    <trip id="moto42" type="moto_motorcycle" depart="568.75" departLane="best" from="436291016#0" to="278328405#1"/>
    <trip id="moto43" type="moto_motorcycle" depart="582.29" departLane="best" from="89927838#3" to="436291019"/>
    <trip id="moto44" type="moto_motorcycle" depart="595.83" departLane="best" from="-5955850#0" to="-593766960"/>
    <trip id="moto45" type="moto_motorcycle" depart="609.37" departLane="best" departSpeed="max" from="-5955850#2" to="593766961"/>
    <trip id="moto46" type="moto_motorcycle" depart="622.91" departLane="best" from="6024091#5" to="436291016#10"/>
    <trip id="moto48" type="moto_motorcycle" depart="650.00" departLane="best" from="89927838#3" to="436291020#1"/>
    <trip id="moto49" type="moto_motorcycle" depart="663.54" departLane="best" from="89922370#5" to="641705064#1"/>
    <trip id="moto50" type="moto_motorcycle" depart="677.08" departLane="best" from="-419814433#2" to="5962129#0"/>
    <trip id="moto52" type="moto_motorcycle" depart="704.16" departLane="best" from="36054466#4" to="593766962#0"/>
    <trip id="moto53" type="moto_motorcycle" depart="717.70" departLane="best" departSpeed="max" from="-5955850#2" to="436291016#2"/>
    <trip id="moto57" type="moto_motorcycle" depart="771.87" departLane="best" departSpeed="max" from="642337374#0" to="641705146#0"/>
    <trip id="moto58" type="moto_motorcycle" depart="785.41" departLane="best" from="36054466#7" to="593766962#0"/>
    <trip id="moto59" type="moto_motorcycle" depart="798.95" departLane="best" departSpeed="max" from="573865733#0" to="-5962129#5"/>
    <trip id="moto60" type="moto_motorcycle" depart="812.50" departLane="best" departSpeed="max" from="6024091#0" to="436291020#2"/>
    <trip id="moto61" type="moto_motorcycle" depart="826.04" departLane="best" from="6024091#3" to="436291020#1"/>
    <trip id="moto62" type="moto_motorcycle" depart="839.58" departLane="best" from="-419814433#1" to="36054466#9"/>
    <trip id="moto65" type="moto_motorcycle" depart="880.20" departLane="best" from="36054466#8" to="-593766963"/>
    <trip id="moto67" type="moto_motorcycle" depart="907.29" departLane="best" from="-5955850#0" to="436291016#8"/>
    <trip id="moto68" type="moto_motorcycle" depart="920.83" departLane="best" from="-593766964" to="5962129#5"/>
    <trip id="moto69" type="moto_motorcycle" depart="934.37" departLane="best" from="6024091#2" to="-5962129#2"/>
    <trip id="moto71" type="moto_motorcycle" depart="961.45" departLane="best" from="36054466#4" to="641705146#0"/>
    <trip id="moto72" type="moto_motorcycle" depart="975.00" departLane="best" from="436291016#2" to="278328405#0"/>
    <trip id="moto73" type="moto_motorcycle" depart="988.54" departLane="best" departSpeed="max" from="436291021#0" to="5962129#1"/>
    <trip id="moto74" type="moto_motorcycle" depart="1002.08" departLane="best" from="234953562" to="36054466#7"/>
    <trip id="moto75" type="moto_motorcycle" depart="1015.62" departLane="best" from="89927838#3" to="593766963"/>
    <trip id="moto77" type="moto_motorcycle" depart="1042.70" departLane="best" departSpeed="max" from="-5955850#2" to="36054466#0"/>
    <trip id="moto78" type="moto_motorcycle" depart="1056.25" departLane="best" departSpeed="max" from="419814433#0" to="436291064#0"/>
    <trip id="moto79" type="moto_motorcycle" depart="1069.79" departLane="best" from="36054466#0" to="278328405#1"/>
    <trip id="moto80" type="moto_motorcycle" depart="1083.33" departLane="best" from="-593766964" to="593766962#0"/>
    <trip id="moto81" type="moto_motorcycle" depart="1096.87" departLane="best" from="36054466#0" to="641705146#2"/>
    <trip id="moto82" type="moto_motorcycle" depart="1110.41" departLane="best" from="641705065" to="-593766964"/>
    <trip id="moto83" type="moto_motorcycle" depart="1123.95" departLane="best" from="36054466#1" to="593766965"/>
    <trip id="moto87" type="moto_motorcycle" depart="1178.12" departLane="best" from="641705063#0" to="-89927838#3"/>
    <trip id="moto88" type="moto_motorcycle" depart="1191.66" departLane="best" from="-5955850#1" to="436291016#2"/>
    <trip id="moto89" type="moto_motorcycle" depart="1205.20" departLane="best" from="436291016#2" to="436291016#6"/>
    <trip id="moto90" type="moto_motorcycle" depart="1218.74" departLane="best" from="5962129#4" to="593766965"/>
    <trip id="moto92" type="moto_motorcycle" depart="1245.83" departLane="best" from="436291016#0" to="419814433#1"/>
    <trip id="moto93" type="moto_motorcycle" depart="1259.37" departLane="best" from="641705065" to="36054466#10"/>
    <trip id="moto94" type="moto_motorcycle" depart="1272.91" departLane="best" from="-89927838#3" to="436291016#4"/>
    <trip id="moto95" type="moto_motorcycle" depart="1286.45" departLane="best" from="436291016#2" to="36054466#4"/>
    <trip id="moto96" type="moto_motorcycle" depart="1299.99" departLane="best" from="36054466#2" to="642337373"/>
    <trip id="moto98" type="moto_motorcycle" depart="1327.08" departLane="best" departSpeed="max" from="436291021#0" to="-593766960"/>
    <trip id="moto99" type="moto_motorcycle" depart="1340.62" departLane="best" from="89927838#3" to="641705063#3"/>
    <trip id="moto101" type="moto_motorcycle" depart="1367.70" departLane="best" from="641705064#0" to="-641705065"/>
    <trip id="moto103" type="moto_motorcycle" depart="1394.79" departLane="best" from="436291016#0" to="-593766963"/>
    <trip id="moto105" type="moto_motorcycle" depart="1421.87" departLane="best" from="36054466#4" to="6024091#3"/>
    <trip id="moto106" type="moto_motorcycle" depart="1435.41" departLane="best" from="436291016#6" to="436291016#10"/>
    <trip id="moto107" type="moto_motorcycle" depart="1448.95" departLane="best" departSpeed="max" from="89922370#0" to="89927838#3"/>
    <trip id="moto108" type="moto_motorcycle" depart="1462.49" departLane="best" departSpeed="max" from="436291021#0" to="5962129#0"/>
    <trip id="moto109" type="moto_motorcycle" depart="1476.03" departLane="best" from="-5962129#3" to="36054466#6"/>
    <trip id="moto110" type="moto_motorcycle" depart="1489.58" departLane="best" from="89922370#5" to="436291062"/>
    <trip id="moto111" type="moto_motorcycle" depart="1503.12" departLane="best" departSpeed="max" from="436291021#0" to="5962129#3"/>
    <trip id="moto112" type="moto_motorcycle" depart="1516.66" departLane="best" from="-593766963" to="436291064#0"/>
    <trip id="moto114" type="moto_motorcycle" depart="1543.74" departLane="best" from="-5962129#3" to="642751754#0"/>
    <trip id="moto115" type="moto_motorcycle" depart="1557.28" departLane="best" from="-593766965" to="-89927838#3"/>
    <trip id="moto116" type="moto_motorcycle" depart="1570.83" departLane="best" departSpeed="max" from="573865733#0" to="593766965"/>
    <trip id="moto117" type="moto_motorcycle" depart="1584.37" departLane="best" from="36054466#0" to="-5962129#1"/>
    <trip id="moto118" type="moto_motorcycle" depart="1597.91" departLane="best" from="642337372" to="36054466#10"/>
    <trip id="moto119" type="moto_motorcycle" depart="1611.45" departLane="best" departSpeed="max" from="573865733#0" to="593766960"/>
    <trip id="moto120" type="moto_motorcycle" depart="1624.99" departLane="best" from="436291016#2" to="436291064#0"/>
    <trip id="moto122" type="moto_motorcycle" depart="1652.08" departLane="best" from="234953562" to="5962129#0"/>
    <trip id="moto123" type="moto_motorcycle" depart="1665.62" departLane="best" from="36054466#1" to="436291016#0"/>
    <trip id="moto124" type="moto_motorcycle" depart="1679.16" departLane="best" from="5955850#0" to="36054466#6"/>
    <trip id="moto125" type="moto_motorcycle" depart="1692.70" departLane="best" from="36054466#9" to="5962129#4"/>
    <trip id="moto126" type="moto_motorcycle" depart="1706.24" departLane="best" from="-593766964" to="436291016#5"/>
    <trip id="moto127" type="moto_motorcycle" depart="1719.78" departLane="best" from="89927838#3" to="89927838#3"/>
    <trip id="moto128" type="moto_motorcycle" depart="1733.33" departLane="best" from="-593766964" to="278328405#1"/>
    <trip id="moto131" type="moto_motorcycle" depart="1773.95" departLane="best" from="436291010" to="-641705065"/>
    <trip id="moto132" type="moto_motorcycle" depart="1787.49" departLane="best" from="641705063#3" to="5955850#2"/>
    <trip id="moto134" type="moto_motorcycle" depart="1814.57" departLane="best" from="593766964" to="-419814433#0"/>
    <trip id="moto135" type="moto_motorcycle" depart="1828.12" departLane="best" from="641705063#1" to="36054466#6"/>
    <trip id="moto136" type="moto_motorcycle" depart="1841.66" departLane="best" from="593766965" to="642361032"/>
    <trip id="moto137" type="moto_motorcycle" depart="1855.20" departLane="best" from="-5962129#1" to="-5962129#1"/>
    <trip id="moto138" type="moto_motorcycle" depart="1868.74" departLane="best" departSpeed="max" from="-5955850#2" to="436291029"/>
    <trip id="moto140" type="moto_motorcycle" depart="1895.82" departLane="best" from="5962129#3" to="234953562"/>
    <trip id="moto141" type="moto_motorcycle" depart="1909.37" departLane="best" from="593766961" to="36054466#2"/>
    <trip id="moto144" type="moto_motorcycle" depart="1949.99" departLane="best" from="436291016#2" to="36054466#3"/>
    <trip id="moto145" type="moto_motorcycle" depart="1963.53" departLane="best" from="-419814433#1" to="6024091#2"/>
    <trip id="moto146" type="moto_motorcycle" depart="1977.07" departLane="best" from="593766961" to="36054466#2"/>
    <trip id="moto147" type="moto_motorcycle" depart="1990.62" departLane="best" from="5962129#5" to="436291029"/>
    <trip id="moto148" type="moto_motorcycle" depart="2004.16" departLane="best" from="436291016#3" to="-419814433#0"/>
    <trip id="moto149" type="moto_motorcycle" depart="2017.70" departLane="best" from="-593766964" to="641705146#1"/>
    <trip id="moto150" type="moto_motorcycle" depart="2031.24" departLane="best" from="642337373" to="436291020#2"/>
    <trip id="moto151" type="moto_motorcycle" depart="2044.78" departLane="best" from="641705063#3" to="436291062"/>
    <trip id="moto152" type="moto_motorcycle" depart="2058.32" departLane="best" from="-5962129#2" to="-5962129#2"/>
    <trip id="moto153" type="moto_motorcycle" depart="2071.87" departLane="best" from="36054466#8" to="641705146#2"/>
    <trip id="moto154" type="moto_motorcycle" depart="2085.41" departLane="best" from="634644489" to="641705064#1"/>
    <trip id="moto155" type="moto_motorcycle" depart="2098.95" departLane="best" from="642337373" to="278328405#0"/>
    <trip id="moto156" type="moto_motorcycle" depart="2112.49" departLane="best" from="36054466#2" to="-5962129#0"/>
    <trip id="moto157" type="moto_motorcycle" depart="2126.03" departLane="best" from="6024091#3" to="641705146#1"/>
    <trip id="moto158" type="moto_motorcycle" depart="2139.57" departLane="best" from="436291016#1" to="593766961"/>
    <trip id="moto160" type="moto_motorcycle" depart="2166.66" departLane="best" from="641705065" to="642751754#1"/>
    <trip id="moto161" type="moto_motorcycle" depart="2180.20" departLane="best" from="641705063#0" to="641705146#1"/>
    <trip id="moto162" type="moto_motorcycle" depart="2193.74" departLane="best" from="-419814433#4" to="5962129#2"/>
    <trip id="moto164" type="moto_motorcycle" depart="2220.82" departLane="best" from="641705063#0" to="641705065"/>
    <trip id="moto165" type="moto_motorcycle" depart="2234.36" departLane="best" from="641705063#0" to="36054466#2"/>
    <trip id="moto166" type="moto_motorcycle" depart="2247.91" departLane="best" from="6024091#5" to="-5962129#0"/>
    <trip id="moto170" type="moto_motorcycle" depart="2302.07" departLane="best" from="634644489" to="36054466#0"/>
    <trip id="moto171" type="moto_motorcycle" depart="2315.61" departLane="best" from="-419814433#4" to="-89927838#3"/>
    <trip id="moto172" type="moto_motorcycle" depart="2329.16" departLane="best" departSpeed="max" from="419814433#0" to="641705065"/>
    <trip id="moto173" type="moto_motorcycle" depart="2342.70" departLane="best" from="89922370#5" to="36054466#4"/>
    <trip id="moto174" type="moto_motorcycle" depart="2356.24" departLane="best" from="593766961" to="436291016#1"/>
    <trip id="moto175" type="moto_motorcycle" depart="2369.78" departLane="best" departSpeed="max" from="89927838#0" to="436291020#1"/>
    <trip id="moto177" type="moto_motorcycle" depart="2396.86" departLane="best" from="89922370#5" to="-89927838#0"/>
    <trip id="moto178" type="moto_motorcycle" depart="2410.41" departLane="best" from="89922370#5" to="36054466#2"/>
    <trip id="moto179" type="moto_motorcycle" depart="2423.95" departLane="best" departSpeed="max" from="-5955850#2" to="436291016#2"/>
    <trip id="moto180" type="moto_motorcycle" depart="2437.49" departLane="best" from="5962129#4" to="36054466#7"/>
    <trip id="moto181" type="moto_motorcycle" depart="2451.03" departLane="best" departSpeed="max" from="573865733#0" to="436291019"/>
    <trip id="moto182" type="moto_motorcycle" depart="2464.57" departLane="best" from="436291011" to="436291062"/>
    <trip id="moto183" type="moto_motorcycle" depart="2478.11" departLane="best" from="36054466#3" to="5955850#2"/>
    <trip id="moto184" type="moto_motorcycle" depart="2491.65" departLane="best" from="-419814433#1" to="642337373"/>
    <trip id="moto185" type="moto_motorcycle" depart="2505.20" departLane="best" departSpeed="max" from="436291021#0" to="5962129#0"/>
    <trip id="moto186" type="moto_motorcycle" depart="2518.74" departLane="best" from="5962129#5" to="593766965"/>
    <trip id="moto187" type="moto_motorcycle" depart="2532.28" departLane="best" from="419814433#4" to="-593766964"/>
    <trip id="moto188" type="moto_motorcycle" depart="2545.82" departLane="best" from="593766965" to="36054466#9"/>
    <trip id="moto189" type="moto_motorcycle" depart="2559.36" departLane="best" from="36054466#9" to="641705064#0"/>
    <trip id="moto190" type="moto_motorcycle" depart="2572.90" departLane="best" from="5962129#3" to="36054466#6"/>
    <trip id="moto191" type="moto_motorcycle" depart="2586.45" departLane="best" from="36054466#8" to="436291016#10"/>
    <trip id="moto192" type="moto_motorcycle" depart="2599.99" departLane="best" from="436291016#0" to="36054466#5"/>
    <trip id="moto193" type="moto_motorcycle" depart="2613.53" departLane="best" from="-5962129#0" to="436291016#10"/>
    <trip id="moto195" type="moto_motorcycle" depart="2640.61" departLane="best" from="642337373" to="593766960"/>
    <trip id="moto196" type="moto_motorcycle" depart="2654.15" departLane="best" from="36054466#7" to="436291029"/>
    <trip id="moto197" type="moto_motorcycle" depart="2667.70" departLane="best" from="-419814433#1" to="36054466#4"/>
    <trip id="moto198" type="moto_motorcycle" depart="2681.24" departLane="best" from="436291016#3" to="436291062"/>
    <trip id="moto199" type="moto_motorcycle" depart="2694.78" departLane="best" from="593766964" to="436291016#6"/>
    <trip id="moto202" type="moto_motorcycle" depart="2735.40" departLane="best" from="634644489" to="-89927838#0"/>
    <trip id="moto203" type="moto_motorcycle" depart="2748.95" departLane="best" from="-593766965" to="436291019"/>
    <trip id="moto204" type="moto_motorcycle" depart="2762.49" departLane="best" from="593766961" to="419814433#1"/>
    <trip id="moto205" type="moto_motorcycle" depart="2776.03" departLane="best" from="641705063#1" to="5962129#4"/>
    <trip id="moto206" type="moto_motorcycle" depart="2789.57" departLane="best" from="5955850#0" to="36054466#0"/>
    <trip id="moto207" type="moto_motorcycle" depart="2803.11" departLane="best" from="234953562" to="-419814433#1"/>
    <trip id="moto208" type="moto_motorcycle" depart="2816.65" departLane="best" from="36054466#1" to="436291016#7"/>
    <trip id="moto209" type="moto_motorcycle" depart="2830.20" departLane="best" from="641705064#1" to="-593766964"/>
    <trip id="moto210" type="moto_motorcycle" depart="2843.74" departLane="best" from="436291016#1" to="593766962#0"/>
    <trip id="moto211" type="moto_motorcycle" depart="2857.28" departLane="best" from="-89927838#3" to="5955850#2"/>
    <trip id="moto212" type="moto_motorcycle" depart="2870.82" departLane="best" from="436291018" to="36054466#10"/>
    <trip id="moto213" type="moto_motorcycle" depart="2884.36" departLane="best" from="593766964" to="-419814433#0"/>
    <trip id="moto214" type="moto_motorcycle" depart="2897.90" departLane="best" departSpeed="max" from="6024091#0" to="6024091#2"/>
    <trip id="moto215" type="moto_motorcycle" depart="2911.44" departLane="best" departSpeed="max" from="-5955850#2" to="436291016#10"/>
    <trip id="moto216" type="moto_motorcycle" depart="2924.99" departLane="best" from="-5962129#5" to="642751754#0"/>
    <trip id="moto218" type="moto_motorcycle" depart="2952.07" departLane="best" from="36054466#2" to="641705064#0"/>
    <trip id="moto221" type="moto_motorcycle" depart="2992.69" departLane="best" departSpeed="max" from="573865733#0" to="642361032"/>
    <trip id="moto222" type="moto_motorcycle" depart="3006.24" departLane="best" from="642337372" to="593766960"/>
    <trip id="moto223" type="moto_motorcycle" depart="3019.78" departLane="best" from="5962129#3" to="436291018"/>
    <trip id="moto224" type="moto_motorcycle" depart="3033.32" departLane="best" from="641705063#3" to="436291029"/>
    <trip id="moto225" type="moto_motorcycle" depart="3046.86" departLane="best" from="642337373" to="5962129#3"/>
    <trip id="moto227" type="moto_motorcycle" depart="3073.94" departLane="best" from="36054466#2" to="593766962#0"/>
    <trip id="moto228" type="moto_motorcycle" depart="3087.49" departLane="best" from="6024091#2" to="436291020#0"/>
    <trip id="moto229" type="moto_motorcycle" depart="3101.03" departLane="best" from="593766960" to="36054466#3"/>
    <trip id="moto230" type="moto_motorcycle" depart="3114.57" departLane="best" from="-593766965" to="36054466#4"/>
    <trip id="moto231" type="moto_motorcycle" depart="3128.11" departLane="best" from="36054466#4" to="36054466#8"/>
    <trip id="moto232" type="moto_motorcycle" depart="3141.65" departLane="best" departSpeed="max" from="436291021#0" to="-5962129#3"/>
    <trip id="moto233" type="moto_motorcycle" depart="3155.19" departLane="best" from="36054466#0" to="5955850#1"/>
    <trip id="moto234" type="moto_motorcycle" depart="3168.74" departLane="best" from="5962129#1" to="-593766963"/>
    <trip id="moto235" type="moto_motorcycle" depart="3182.28" departLane="best" from="436291016#1" to="436291020#2"/>
    <trip id="moto236" type="moto_motorcycle" depart="3195.82" departLane="best" from="436291016#2" to="278328405#0"/>
    <trip id="moto237" type="moto_motorcycle" depart="3209.36" departLane="best" from="436291016#2" to="641705146#2"/>
    <trip id="moto238" type="moto_motorcycle" depart="3222.90" departLane="best" from="436291064#0" to="5955850#2"/>
    <trip id="moto239" type="moto_motorcycle" depart="3236.44" departLane="best" from="641705064#1" to="5962129#5"/>
    <trip id="moto240" type="moto_motorcycle" depart="3249.98" departLane="best" from="436291011" to="-419814433#0"/>
    <trip id="moto241" type="moto_motorcycle" depart="3263.53" departLane="best" from="419814433#2" to="5962129#4"/>
    <trip id="moto242" type="moto_motorcycle" depart="3277.07" departLane="best" from="641705064#1" to="642361032"/>
    <trip id="moto243" type="moto_motorcycle" depart="3290.61" departLane="best" from="436291016#2" to="5962129#3"/>
    <trip id="moto245" type="moto_motorcycle" depart="3317.69" departLane="best" from="278328405#1" to="278328405#1"/>
    <trip id="moto247" type="moto_motorcycle" depart="3344.78" departLane="best" departSpeed="max" from="419814433#0" to="5955850#0"/>
    <trip id="moto248" type="moto_motorcycle" depart="3358.32" departLane="best" from="436291016#0" to="-641705065"/>
    <trip id="moto250" type="moto_motorcycle" depart="3385.40" departLane="best" from="573865733#1" to="-419814433#1"/>
    <trip id="moto251" type="moto_motorcycle" depart="3398.94" departLane="best" from="436291013" to="436291029"/>
    <trip id="moto252" type="moto_motorcycle" depart="3412.48" departLane="best" from="-419814433#4" to="593766962#0"/>
    <trip id="moto253" type="moto_motorcycle" depart="3426.03" departLane="best" from="-5962129#1" to="436291016#5"/>
    <trip id="moto254" type="moto_motorcycle" depart="3439.57" departLane="best" departSpeed="max" from="-593766962#1" to="436291011"/>
    <trip id="moto256" type="moto_motorcycle" depart="3466.65" departLane="best" departSpeed="max" from="6024091#0" to="436291011"/>
    <trip id="moto257" type="moto_motorcycle" depart="3480.19" departLane="best" departSpeed="max" from="6024091#0" to="641705063#2"/>
    <trip id="moto258" type="moto_motorcycle" depart="3493.73" departLane="best" from="36054466#2" to="-593766965"/>
    <trip id="moto259" type="moto_motorcycle" depart="3507.28" departLane="best" from="-419814433#4" to="436291020#2"/>
    <trip id="moto260" type="moto_motorcycle" depart="3520.82" departLane="best" from="89927838#3" to="419814433#2"/>
    <trip id="moto261" type="moto_motorcycle" depart="3534.36" departLane="best" from="593766963" to="6024091#3"/>
    <trip id="moto262" type="moto_motorcycle" depart="3547.90" departLane="best" from="593766964" to="5962129#4"/>
    <trip id="moto263" type="moto_motorcycle" depart="3561.44" departLane="best" departSpeed="max" from="89922370#0" to="234953562"/>
    <trip id="moto264" type="moto_motorcycle" depart="3574.98" departLane="best" from="-419814433#4" to="-5962129#5"/>
    <trip id="moto265" type="moto_motorcycle" depart="3588.52" departLane="best" from="-5962129#0" to="593766965"/>
</routes>
