<?xml version="1.0" encoding="UTF-8"?>

<!-- generated on Thu Dec  5 17:00:15 2019 by Eclipse SUMO duarouter Version 1.3.1
<configuration xmlns:xsi="http://www.w3.org/2001/XMLSchema-instance" xsi:noNamespaceSchemaLocation="http://sumo.dlr.de/xsd/duarouterConfiguration.xsd">

    <input>
        <net-file value="osm.net.xml"/>
        <route-files value="osm.motorcycle.trips.xml"/>
    </input>

    <output>
        <output-file value="osm.motorcycle.rou.xml"/>
        <alternatives-output value="osm.motorcycle.rou.alt.xml"/>
    </output>

    <time>
        <begin value="0"/>
        <end value="3600.0"/>
    </time>

    <report>
        <no-warnings value="true"/>
        <ignore-errors value="true"/>
        <no-step-log value="true"/>
    </report>

</configuration>
-->

<routes xmlns:xsi="http://www.w3.org/2001/XMLSchema-instance" xsi:noNamespaceSchemaLocation="http://sumo.dlr.de/xsd/routes_file.xsd">
    <vType id="moto_motorcycle" vClass="motorcycle"/>
    <vehicle id="moto0" type="moto_motorcycle" depart="0.00" departLane="best">
        <route edges="593766961 436291018 641705063#0 641705063#1 641705063#2 641705063#3 -419814433#4 -419814433#2 -419814433#1"/>
    </vehicle>
    <vehicle id="moto1" type="moto_motorcycle" depart="13.54" departLane="best">
        <route edges="36054466#5 36054466#6 36054466#7 36054466#8 36054466#9 -5962129#3 -5962129#2 419814433#2 419814433#4 641705065 634644489 36054466#0"/>
    </vehicle>
    <vehicle id="moto2" type="moto_motorcycle" depart="27.08" departLane="best">
        <route edges="5962129#5 593766965 593766964 593766963 593766960 593766962#0 -593766962#1 -593766960 -593766963 -593766964 -593766965 -5962129#5 -5962129#4 -5962129#3 -5962129#2 -5962129#1 -5962129#0 5955850#0"/>
    </vehicle>
    <vehicle id="moto4" type="moto_motorcycle" depart="54.17" departLane="best">
        <route edges="436291016#2 436291016#3 5962129#0 5962129#1 419814433#2 -419814433#2"/>
    </vehicle>
    <vehicle id="moto6" type="moto_motorcycle" depart="81.25" departLane="best">
        <route edges="-419814433#4 419814433#4 641705064#0 641705064#1 436291031 436291062 436291064#0 436291064#1 642337372 642337373 234953562"/>
    </vehicle>
    <vehicle id="moto7" type="moto_motorcycle" depart="94.79" departLane="best">
        <route edges="593766963 593766961 436291018 436291020#0 436291020#1 436291020#2"/>
    </vehicle>
    <vehicle id="moto9" type="moto_motorcycle" depart="121.87" departLane="best">
        <route edges="641705063#0 641705063#1 641705063#2 641705063#3 -419814433#4 -419814433#2 -419814433#1 -419814433#0"/>
    </vehicle>
    <vehicle id="moto10" type="moto_motorcycle" depart="135.42" departLane="best">
        <route edges="641705063#0 641705063#1 641705063#2 641705063#3 641705064#0 641705064#1 436291031 436291016#0 436291016#1 436291016#2 436291016#3 5955850#0 5955850#1 5955850#2"/>
    </vehicle>
    <vehicle id="moto11" type="moto_motorcycle" depart="148.96" departLane="best">
        <route edges="419814433#1 5962129#2 5962129#3 5962129#4 5962129#5 593766965 593766964 593766963 593766960 593766962#0 -593766962#1 -593766960 -593766963 -593766964 -593766965 -5962129#5"/>
    </vehicle>
    <vehicle id="moto12" type="moto_motorcycle" depart="162.50" departLane="best" departSpeed="max">
        <route edges="89922370#0 89922370#5 641705063#0 641705063#1 641705063#2 641705063#3 -419814433#4 -419814433#2 -419814433#1 -419814433#0 419814433#0 419814433#1"/>
    </vehicle>
    <vehicle id="moto15" type="moto_motorcycle" depart="203.12" departLane="best">
        <route edges="641705063#0 641705063#1 641705063#2 641705063#3 641705064#0 641705064#1 436291031 436291016#0 436291016#1 436291016#2 436291016#3 5962129#0 5962129#1"/>
    </vehicle>
    <vehicle id="moto16" type="moto_motorcycle" depart="216.67" departLane="best">
        <route edges="436291020#2 436291019 642751754#0 642751754#1"/>
    </vehicle>
    <vehicle id="moto17" type="moto_motorcycle" depart="230.21" departLane="best">
        <route edges="436291011 436291010 436291062 436291064#0 436291064#1 642337372 642337373 234953562 634644489 278328405#0 278328405#1 436291029"/>
    </vehicle>
    <vehicle id="moto18" type="moto_motorcycle" depart="243.75" departLane="best">
        <route edges="641705063#2 641705063#3 -419814433#4 -419814433#2 5962129#2 5962129#3 5962129#4 5962129#5 593766965 593766964 593766963 593766960"/>
    </vehicle>
    <vehicle id="moto19" type="moto_motorcycle" depart="257.29" departLane="best">
        <route edges="641705065 634644489 36054466#0 36054466#1 36054466#2 36054466#3 36054466#4 641705063#2 641705063#3 641705064#0 641705064#1 436291031 436291062"/>
    </vehicle>
    <vehicle id="moto20" type="moto_motorcycle" depart="270.83" departLane="best">
        <route edges="5962129#1 5962129#2 5962129#3 5962129#4 5962129#5 593766965 593766964 593766963 593766961 436291018 641705063#0 641705063#1 641705063#2 641705063#3 -419814433#4"/>
    </vehicle>
    <vehicle id="moto21" type="moto_motorcycle" depart="284.37" departLane="best">
        <route edges="36054466#0 36054466#1 36054466#2 36054466#3 36054466#4 36054466#5"/>
    </vehicle>
    <vehicle id="moto22" type="moto_motorcycle" depart="297.92" departLane="best">
        <route edges="-593766965 -5962129#5 -5962129#4 -5962129#3 -5962129#2 419814433#2 419814433#4 641705065 634644489 36054466#0 36054466#1"/>
    </vehicle>
    <vehicle id="moto23" type="moto_motorcycle" depart="311.46" departLane="best">
        <route edges="-5955850#1 -5955850#0 5962129#0 5962129#1 419814433#2 419814433#4 641705065 634644489 36054466#0 36054466#1 36054466#2 36054466#3 36054466#4"/>
    </vehicle>
    <vehicle id="moto24" type="moto_motorcycle" depart="325.00" departLane="best">
        <route edges="593766961 436291018 641705063#0 641705063#1 641705063#2 641705063#3 641705064#0 641705064#1 436291031 436291062 436291064#0 436291064#1 642337372 642337373 436291011 436291010"/>
    </vehicle>
    <vehicle id="moto25" type="moto_motorcycle" depart="338.54" departLane="best">
        <route edges="436291010 436291062 436291064#0 436291064#1 642337372 642337373 234953562 634644489 278328405#0"/>
    </vehicle>
    <vehicle id="moto26" type="moto_motorcycle" depart="352.08" departLane="best">
        <route edges="36054466#4 641705063#2 641705063#3 641705064#0 641705064#1 436291031 436291062 436291064#0 436291064#1 642361032"/>
    </vehicle>
    <vehicle id="moto28" type="moto_motorcycle" depart="379.16" departLane="best">
        <route edges="-5962129#5 -5962129#4 -5962129#3 -5962129#2 419814433#2 419814433#4 641705064#0 641705064#1 436291031 436291016#0 436291016#1 436291016#2 436291016#3 5962129#0 5962129#1"/>
    </vehicle>
    <vehicle id="moto29" type="moto_motorcycle" depart="392.71" departLane="best">
        <route edges="-5962129#4 -5962129#3 -5962129#2 -5962129#1 -5962129#0 5955850#0 6024091#2 6024091#3 6024091#5 642337372 642337373 436291011"/>
    </vehicle>
    <vehicle id="moto30" type="moto_motorcycle" depart="406.25" departLane="best" departSpeed="max">
        <route edges="89927838#0 89927838#3 36054466#0 36054466#1 36054466#2 36054466#3 36054466#4 36054466#5 36054466#6 36054466#7 36054466#8 36054466#9 5962129#4 5962129#5 593766965 593766964 593766963 593766960 593766962#0"/>
    </vehicle>
    <vehicle id="moto31" type="moto_motorcycle" depart="419.79" departLane="best">
        <route edges="436291031 436291016#0 436291016#1 436291016#2 436291016#3 5955850#0"/>
    </vehicle>
    <vehicle id="moto32" type="moto_motorcycle" depart="433.33" departLane="best">
        <route edges="641705064#0 641705064#1 436291031 436291016#0 436291016#1 436291016#2 436291016#3 5955850#0 6024091#2"/>
    </vehicle>
    <vehicle id="moto33" type="moto_motorcycle" depart="446.87" departLane="best">
        <route edges="36054466#0 36054466#1 36054466#2 36054466#3 36054466#4 641705063#2 641705063#3 -419814433#4 -419814433#2"/>
    </vehicle>
    <vehicle id="moto34" type="moto_motorcycle" depart="460.41" departLane="best">
        <route edges="36054466#9 -5962129#3 -5962129#2 419814433#2 419814433#4 641705065 634644489 36054466#0 36054466#1 36054466#2"/>
    </vehicle>
    <vehicle id="moto37" type="moto_motorcycle" depart="501.04" departLane="best">
        <route edges="593766964 593766963 593766961 436291018 641705063#0 641705063#1 641705063#2 641705063#3 641705064#0 641705064#1 436291031 436291016#0"/>
    </vehicle>
    <vehicle id="moto38" type="moto_motorcycle" depart="514.58" departLane="best" departSpeed="max">
        <route edges="642337374#0 642337374#1 642337373 436291011 436291010 436291016#0 436291016#1 436291016#2 436291016#3 436291016#4 436291016#5"/>
    </vehicle>
    <vehicle id="moto39" type="moto_motorcycle" depart="528.12" departLane="best">
        <route edges="36054466#4 36054466#5 36054466#6 36054466#7 36054466#8 36054466#9 36054466#10"/>
    </vehicle>
    <vehicle id="moto40" type="moto_motorcycle" depart="541.66" departLane="best">
        <route edges="436291031 436291062 436291064#0 436291064#1 642337372 642337373 234953562 634644489 36054466#0 36054466#1 36054466#2"/>
    </vehicle>
    <vehicle id="moto41" type="moto_motorcycle" depart="555.21" departLane="best">
        <route edges="436291064#0 436291064#1 642337372 641705146#0 641705146#1 641705146#2"/>
    </vehicle>
    <vehicle id="moto42" type="moto_motorcycle" depart="568.75" departLane="best">
        <route edges="436291016#0 436291016#1 436291016#2 436291016#3 5962129#0 5962129#1 5962129#2 5962129#3 5962129#4 5962129#5 593766965 593766964 593766963 593766961 436291018 436291020#0 436291020#1 436291020#2 436291019 278328405#1"/>
    </vehicle>
    <vehicle id="moto43" type="moto_motorcycle" depart="582.29" departLane="best">
        <route edges="89927838#3 36054466#0 36054466#1 36054466#2 36054466#3 36054466#4 36054466#5 36054466#6 36054466#7 36054466#8 36054466#9 5962129#4 5962129#5 593766965 593766964 593766963 593766961 436291018 436291020#0 436291020#1 436291020#2 436291019"/>
    </vehicle>
    <vehicle id="moto44" type="moto_motorcycle" depart="595.83" departLane="best">
        <route edges="-5955850#0 5962129#0 5962129#1 5962129#2 5962129#3 5962129#4 5962129#5 593766965 593766964 593766963 593766960 593766962#0 -593766962#1 -593766960"/>
    </vehicle>
    <vehicle id="moto45" type="moto_motorcycle" depart="609.37" departLane="best" departSpeed="max">
        <route edges="-5955850#2 -5955850#1 -5955850#0 5962129#0 5962129#1 5962129#2 5962129#3 5962129#4 5962129#5 593766965 593766964 593766963 593766961"/>
    </vehicle>
    <vehicle id="moto46" type="moto_motorcycle" depart="622.91" departLane="best">
        <route edges="6024091#5 642337372 642337373 436291011 436291010 436291016#0 436291016#1 436291016#2 436291016#3 436291016#4 436291016#5 436291016#6 436291016#7 436291016#8 436291016#9 436291016#10"/>
    </vehicle>
    <vehicle id="moto48" type="moto_motorcycle" depart="650.00" departLane="best">
        <route edges="89927838#3 36054466#0 36054466#1 36054466#2 36054466#3 36054466#4 36054466#5 36054466#6 36054466#7 36054466#8 36054466#9 5962129#4 5962129#5 593766965 593766964 593766963 593766961 436291018 436291020#0 436291020#1"/>
    </vehicle>
    <vehicle id="moto49" type="moto_motorcycle" depart="663.54" departLane="best">
        <route edges="89922370#5 641705063#0 641705063#1 641705063#2 641705063#3 641705064#0 641705064#1"/>
    </vehicle>
    <vehicle id="moto50" type="moto_motorcycle" depart="677.08" departLane="best">
        <route edges="-419814433#2 -419814433#1 -419814433#0 419814433#0 419814433#1 419814433#2 419814433#4 641705064#0 641705064#1 436291031 436291016#0 436291016#1 436291016#2 436291016#3 5962129#0"/>
    </vehicle>
    <vehicle id="moto52" type="moto_motorcycle" depart="704.16" departLane="best">
        <route edges="36054466#4 36054466#5 36054466#6 36054466#7 36054466#8 36054466#9 5962129#4 5962129#5 593766965 593766964 593766963 593766960 593766962#0"/>
    </vehicle>
    <vehicle id="moto53" type="moto_motorcycle" depart="717.70" departLane="best" departSpeed="max">
        <route edges="-5955850#2 -5955850#1 -5955850#0 5962129#0 5962129#1 419814433#2 419814433#4 641705064#0 641705064#1 436291031 436291016#0 436291016#1 436291016#2"/>
    </vehicle>
    <vehicle id="moto57" type="moto_motorcycle" depart="771.87" departLane="best" departSpeed="max">
        <route edges="642337374#0 642337374#1 641705146#0"/>
    </vehicle>
    <vehicle id="moto58" type="moto_motorcycle" depart="785.41" departLane="best">
        <route edges="36054466#7 36054466#8 36054466#9 5962129#4 5962129#5 593766965 593766964 593766963 593766960 593766962#0"/>
    </vehicle>
    <vehicle id="moto59" type="moto_motorcycle" depart="798.95" departLane="best" departSpeed="max">
        <route edges="573865733#0 573865733#1 436291013 436291011 436291010 436291016#0 436291016#1 436291016#2 436291016#3 5962129#0 5962129#1 5962129#2 5962129#3 5962129#4 5962129#5 593766965 593766964 593766963 593766960 593766962#0 -593766962#1 -593766960 -593766963 -593766964 -593766965 -5962129#5"/>
    </vehicle>
    <vehicle id="moto60" type="moto_motorcycle" depart="812.50" departLane="best" departSpeed="max">
        <route edges="6024091#0 -5955850#0 5962129#0 5962129#1 5962129#2 5962129#3 5962129#4 5962129#5 593766965 593766964 593766963 593766961 436291018 436291020#0 436291020#1 436291020#2"/>
    </vehicle>
    <vehicle id="moto61" type="moto_motorcycle" depart="826.04" departLane="best">
        <route edges="6024091#3 6024091#5 642337372 642337373 436291011 436291010 436291016#0 436291016#1 436291016#2 436291016#3 5962129#0 5962129#1 5962129#2 5962129#3 5962129#4 5962129#5 593766965 593766964 593766963 593766961 436291018 436291020#0 436291020#1"/>
    </vehicle>
    <vehicle id="moto62" type="moto_motorcycle" depart="839.58" departLane="best">
        <route edges="-419814433#1 -419814433#0 419814433#0 419814433#1 5962129#2 5962129#3 5962129#4 5962129#5 593766965 593766964 593766963 593766961 436291018 641705063#0 641705063#1 36054466#5 36054466#6 36054466#7 36054466#8 36054466#9"/>
    </vehicle>
    <vehicle id="moto65" type="moto_motorcycle" depart="880.20" departLane="best">
        <route edges="36054466#8 36054466#9 5962129#4 5962129#5 593766965 593766964 593766963 593766960 593766962#0 -593766962#1 -593766960 -593766963"/>
    </vehicle>
    <vehicle id="moto67" type="moto_motorcycle" depart="907.29" departLane="best">
        <route edges="-5955850#0 436291016#4 436291016#5 436291016#6 436291016#7 436291016#8"/>
    </vehicle>
    <vehicle id="moto68" type="moto_motorcycle" depart="920.83" departLane="best">
        <route edges="-593766964 -593766965 -5962129#5 -5962129#4 -5962129#3 -5962129#2 419814433#2 -419814433#2 5962129#2 5962129#3 5962129#4 5962129#5"/>
    </vehicle>
    <vehicle id="moto69" type="moto_motorcycle" depart="934.37" departLane="best">
        <route edges="6024091#2 6024091#3 6024091#5 642337372 642337373 234953562 634644489 36054466#0 36054466#1 36054466#2 36054466#3 36054466#4 36054466#5 36054466#6 36054466#7 36054466#8 36054466#9 -5962129#3 -5962129#2"/>
    </vehicle>
    <vehicle id="moto71" type="moto_motorcycle" depart="961.45" departLane="best">
        <route edges="36054466#4 641705063#2 641705063#3 641705064#0 641705064#1 436291031 436291062 436291064#0 436291064#1 642337372 641705146#0"/>
    </vehicle>
    <vehicle id="moto72" type="moto_motorcycle" depart="975.00" departLane="best">
        <route edges="436291016#2 436291016#3 5962129#0 5962129#1 419814433#2 419814433#4 641705065 634644489 278328405#0"/>
    </vehicle>
    <vehicle id="moto73" type="moto_motorcycle" depart="988.54" departLane="best" departSpeed="max">
        <route edges="436291021#0 593766961 436291018 641705063#0 641705063#1 641705063#2 641705063#3 641705064#0 641705064#1 436291031 436291016#0 436291016#1 436291016#2 436291016#3 5962129#0 5962129#1"/>
    </vehicle>
    <vehicle id="moto74" type="moto_motorcycle" depart="1002.08" departLane="best">
        <route edges="234953562 634644489 36054466#0 36054466#1 36054466#2 36054466#3 36054466#4 36054466#5 36054466#6 36054466#7"/>
    </vehicle>
    <vehicle id="moto75" type="moto_motorcycle" depart="1015.62" departLane="best">
        <route edges="89927838#3 36054466#0 36054466#1 36054466#2 36054466#3 36054466#4 36054466#5 36054466#6 36054466#7 36054466#8 36054466#9 5962129#4 5962129#5 593766965 593766964 593766963"/>
    </vehicle>
    <vehicle id="moto77" type="moto_motorcycle" depart="1042.70" departLane="best" departSpeed="max">
        <route edges="-5955850#2 -5955850#1 -5955850#0 5962129#0 5962129#1 419814433#2 419814433#4 641705065 634644489 36054466#0"/>
    </vehicle>
    <vehicle id="moto78" type="moto_motorcycle" depart="1056.25" departLane="best" departSpeed="max">
        <route edges="419814433#0 419814433#1 419814433#2 419814433#4 641705064#0 641705064#1 436291031 436291062 436291064#0"/>
    </vehicle>
    <vehicle id="moto79" type="moto_motorcycle" depart="1069.79" departLane="best">
        <route edges="36054466#0 36054466#1 36054466#2 36054466#3 36054466#4 641705063#2 641705063#3 641705065 634644489 278328405#0 278328405#1"/>
    </vehicle>
    <vehicle id="moto80" type="moto_motorcycle" depart="1083.33" departLane="best">
        <route edges="-593766964 -593766965 -5962129#5 -5962129#4 -5962129#3 -5962129#2 419814433#2 -419814433#2 5962129#2 5962129#3 5962129#4 5962129#5 593766965 593766964 593766963 593766960 593766962#0"/>
    </vehicle>
    <vehicle id="moto81" type="moto_motorcycle" depart="1096.87" departLane="best">
        <route edges="36054466#0 36054466#1 36054466#2 36054466#3 36054466#4 641705063#2 641705063#3 641705064#0 641705064#1 436291031 436291062 436291064#0 436291064#1 642337372 641705146#0 641705146#1 641705146#2"/>
    </vehicle>
    <vehicle id="moto82" type="moto_motorcycle" depart="1110.41" departLane="best">
        <route edges="641705065 634644489 36054466#0 36054466#1 36054466#2 36054466#3 36054466#4 36054466#5 36054466#6 36054466#7 36054466#8 36054466#9 5962129#4 5962129#5 593766965 593766964 593766963 593766960 593766962#0 -593766962#1 -593766960 -593766963 -593766964"/>
    </vehicle>
    <vehicle id="moto83" type="moto_motorcycle" depart="1123.95" departLane="best">
        <route edges="36054466#1 36054466#2 36054466#3 36054466#4 36054466#5 36054466#6 36054466#7 36054466#8 36054466#9 5962129#4 5962129#5 593766965"/>
    </vehicle>
    <vehicle id="moto87" type="moto_motorcycle" depart="1178.12" departLane="best">
        <route edges="641705063#0 641705063#1 641705063#2 641705063#3 641705065 634644489 -89927838#3"/>
    </vehicle>
    <vehicle id="moto88" type="moto_motorcycle" depart="1191.66" departLane="best">
        <route edges="-5955850#1 -5955850#0 5962129#0 5962129#1 419814433#2 419814433#4 641705064#0 641705064#1 436291031 436291016#0 436291016#1 436291016#2"/>
    </vehicle>
    <vehicle id="moto89" type="moto_motorcycle" depart="1205.20" departLane="best">
        <route edges="436291016#2 436291016#3 436291016#4 436291016#5 436291016#6"/>
    </vehicle>
    <vehicle id="moto90" type="moto_motorcycle" depart="1218.74" departLane="best">
        <route edges="5962129#4 5962129#5 593766965"/>
    </vehicle>
    <vehicle id="moto92" type="moto_motorcycle" depart="1245.83" departLane="best">
        <route edges="436291016#0 436291016#1 436291016#2 436291016#3 5962129#0 5962129#1 -419814433#1 -419814433#0 419814433#0 419814433#1"/>
    </vehicle>
    <vehicle id="moto93" type="moto_motorcycle" depart="1259.37" departLane="best">
        <route edges="641705065 634644489 36054466#0 36054466#1 36054466#2 36054466#3 36054466#4 36054466#5 36054466#6 36054466#7 36054466#8 36054466#9 36054466#10"/>
    </vehicle>
    <vehicle id="moto94" type="moto_motorcycle" depart="1272.91" departLane="best">
        <route edges="-89927838#3 -89927838#0 89927838#0 89927838#3 36054466#0 36054466#1 36054466#2 36054466#3 36054466#4 641705063#2 641705063#3 641705064#0 641705064#1 436291031 436291016#0 436291016#1 436291016#2 436291016#3 436291016#4"/>
    </vehicle>
    <vehicle id="moto95" type="moto_motorcycle" depart="1286.45" departLane="best">
        <route edges="436291016#2 436291016#3 5962129#0 5962129#1 419814433#2 419814433#4 641705065 634644489 36054466#0 36054466#1 36054466#2 36054466#3 36054466#4"/>
    </vehicle>
    <vehicle id="moto96" type="moto_motorcycle" depart="1299.99" departLane="best">
        <route edges="36054466#2 36054466#3 36054466#4 641705063#2 641705063#3 641705064#0 641705064#1 436291031 436291062 436291064#0 436291064#1 642337372 642337373"/>
    </vehicle>
    <vehicle id="moto98" type="moto_motorcycle" depart="1327.08" departLane="best" departSpeed="max">
        <route edges="436291021#0 593766960 593766962#0 -593766962#1 -593766960"/>
    </vehicle>
    <vehicle id="moto99" type="moto_motorcycle" depart="1340.62" departLane="best">
        <route edges="89927838#3 36054466#0 36054466#1 36054466#2 36054466#3 36054466#4 641705063#2 641705063#3"/>
    </vehicle>
    <vehicle id="moto101" type="moto_motorcycle" depart="1367.70" departLane="best">
        <route edges="641705064#0 641705064#1 436291031 436291062 436291064#0 436291064#1 642337372 642337373 234953562 -641705065"/>
    </vehicle>
    <vehicle id="moto103" type="moto_motorcycle" depart="1394.79" departLane="best">
        <route edges="436291016#0 436291016#1 436291016#2 436291016#3 5962129#0 5962129#1 5962129#2 5962129#3 5962129#4 5962129#5 593766965 593766964 593766963 593766960 593766962#0 -593766962#1 -593766960 -593766963"/>
    </vehicle>
    <vehicle id="moto105" type="moto_motorcycle" depart="1421.87" departLane="best">
        <route edges="36054466#4 36054466#5 36054466#6 36054466#7 36054466#8 36054466#9 -5962129#3 -5962129#2 -5962129#1 -5962129#0 5955850#0 6024091#2 6024091#3"/>
    </vehicle>
    <vehicle id="moto106" type="moto_motorcycle" depart="1435.41" departLane="best">
        <route edges="436291016#6 436291016#7 436291016#8 436291016#9 436291016#10"/>
    </vehicle>
    <vehicle id="moto107" type="moto_motorcycle" depart="1448.95" departLane="best" departSpeed="max">
        <route edges="89922370#0 89922370#5 641705063#0 641705063#1 641705063#2 641705063#3 641705065 634644489 -89927838#3 -89927838#0 89927838#0 89927838#3"/>
    </vehicle>
    <vehicle id="moto108" type="moto_motorcycle" depart="1462.49" departLane="best" departSpeed="max">
        <route edges="436291021#0 593766961 436291018 641705063#0 641705063#1 641705063#2 641705063#3 641705064#0 641705064#1 436291031 436291016#0 436291016#1 436291016#2 436291016#3 5962129#0"/>
    </vehicle>
    <vehicle id="moto109" type="moto_motorcycle" depart="1476.03" departLane="best">
        <route edges="-5962129#3 -5962129#2 419814433#2 419814433#4 641705065 634644489 36054466#0 36054466#1 36054466#2 36054466#3 36054466#4 36054466#5 36054466#6"/>
    </vehicle>
    <vehicle id="moto110" type="moto_motorcycle" depart="1489.58" departLane="best">
        <route edges="89922370#5 641705063#0 641705063#1 641705063#2 641705063#3 641705064#0 641705064#1 436291031 436291062"/>
    </vehicle>
    <vehicle id="moto111" type="moto_motorcycle" depart="1503.12" departLane="best" departSpeed="max">
        <route edges="436291021#0 -593766963 -593766964 -593766965 -5962129#5 -5962129#4 -5962129#3 -5962129#2 419814433#2 -419814433#2 5962129#2 5962129#3"/>
    </vehicle>
    <vehicle id="moto112" type="moto_motorcycle" depart="1516.66" departLane="best">
        <route edges="-593766963 -593766964 -593766965 -5962129#5 -5962129#4 -5962129#3 -5962129#2 419814433#2 419814433#4 641705064#0 641705064#1 436291031 436291062 436291064#0"/>
    </vehicle>
    <vehicle id="moto114" type="moto_motorcycle" depart="1543.74" departLane="best">
        <route edges="-5962129#3 -5962129#2 419814433#2 419814433#4 641705065 634644489 278328405#0 642751754#0"/>
    </vehicle>
    <vehicle id="moto115" type="moto_motorcycle" depart="1557.28" departLane="best">
        <route edges="-593766965 -5962129#5 -5962129#4 -5962129#3 -5962129#2 419814433#2 419814433#4 641705065 634644489 -89927838#3"/>
    </vehicle>
    <vehicle id="moto116" type="moto_motorcycle" depart="1570.83" departLane="best" departSpeed="max">
        <route edges="573865733#0 573865733#1 436291013 436291011 436291010 436291016#0 436291016#1 436291016#2 436291016#3 5962129#0 5962129#1 5962129#2 5962129#3 5962129#4 5962129#5 593766965"/>
    </vehicle>
    <vehicle id="moto117" type="moto_motorcycle" depart="1584.37" departLane="best">
        <route edges="36054466#0 36054466#1 36054466#2 36054466#3 36054466#4 36054466#5 36054466#6 36054466#7 36054466#8 36054466#9 -5962129#3 -5962129#2 -5962129#1"/>
    </vehicle>
    <vehicle id="moto118" type="moto_motorcycle" depart="1597.91" departLane="best">
        <route edges="642337372 642337373 234953562 634644489 36054466#0 36054466#1 36054466#2 36054466#3 36054466#4 36054466#5 36054466#6 36054466#7 36054466#8 36054466#9 36054466#10"/>
    </vehicle>
    <vehicle id="moto119" type="moto_motorcycle" depart="1611.45" departLane="best" departSpeed="max">
        <route edges="573865733#0 573865733#1 436291013 436291011 436291010 436291016#0 436291016#1 436291016#2 436291016#3 5962129#0 5962129#1 5962129#2 5962129#3 5962129#4 5962129#5 593766965 593766964 593766963 593766960"/>
    </vehicle>
    <vehicle id="moto120" type="moto_motorcycle" depart="1624.99" departLane="best">
        <route edges="436291016#2 436291016#3 5962129#0 5962129#1 419814433#2 419814433#4 641705064#0 641705064#1 436291031 436291062 436291064#0"/>
    </vehicle>
    <vehicle id="moto122" type="moto_motorcycle" depart="1652.08" departLane="best">
        <route edges="234953562 -641705065 641705064#0 641705064#1 436291031 436291016#0 436291016#1 436291016#2 436291016#3 5962129#0"/>
    </vehicle>
    <vehicle id="moto123" type="moto_motorcycle" depart="1665.62" departLane="best">
        <route edges="36054466#1 36054466#2 36054466#3 36054466#4 641705063#2 641705063#3 641705064#0 641705064#1 436291031 436291016#0"/>
    </vehicle>
    <vehicle id="moto124" type="moto_motorcycle" depart="1679.16" departLane="best">
        <route edges="5955850#0 6024091#2 6024091#3 6024091#5 642337372 642337373 234953562 634644489 36054466#0 36054466#1 36054466#2 36054466#3 36054466#4 36054466#5 36054466#6"/>
    </vehicle>
    <vehicle id="moto125" type="moto_motorcycle" depart="1692.70" departLane="best">
        <route edges="36054466#9 5962129#4"/>
    </vehicle>
    <vehicle id="moto126" type="moto_motorcycle" depart="1706.24" departLane="best">
        <route edges="-593766964 -593766965 -5962129#5 -5962129#4 -5962129#3 -5962129#2 -5962129#1 -5962129#0 436291016#4 436291016#5"/>
    </vehicle>
    <vehicle id="moto127" type="moto_motorcycle" depart="1719.78" departLane="best">
        <route edges="89927838#3"/>
    </vehicle>
    <vehicle id="moto128" type="moto_motorcycle" depart="1733.33" departLane="best">
        <route edges="-593766964 -593766965 -5962129#5 -5962129#4 -5962129#3 -5962129#2 419814433#2 419814433#4 641705065 634644489 278328405#0 278328405#1"/>
    </vehicle>
    <vehicle id="moto131" type="moto_motorcycle" depart="1773.95" departLane="best">
        <route edges="436291010 436291062 436291064#0 436291064#1 642337372 642337373 234953562 -641705065"/>
    </vehicle>
    <vehicle id="moto132" type="moto_motorcycle" depart="1787.49" departLane="best">
        <route edges="641705063#3 641705064#0 641705064#1 436291031 436291016#0 436291016#1 436291016#2 436291016#3 5955850#0 5955850#1 5955850#2"/>
    </vehicle>
    <vehicle id="moto134" type="moto_motorcycle" depart="1814.57" departLane="best">
        <route edges="593766964 593766963 593766961 436291018 641705063#0 641705063#1 641705063#2 641705063#3 -419814433#4 -419814433#2 -419814433#1 -419814433#0"/>
    </vehicle>
    <vehicle id="moto135" type="moto_motorcycle" depart="1828.12" departLane="best">
        <route edges="641705063#1 36054466#5 36054466#6"/>
    </vehicle>
    <vehicle id="moto136" type="moto_motorcycle" depart="1841.66" departLane="best">
        <route edges="593766965 593766964 593766963 593766961 436291018 641705063#0 641705063#1 641705063#2 641705063#3 641705064#0 641705064#1 436291031 436291062 436291064#0 436291064#1 642361032"/>
    </vehicle>
    <vehicle id="moto137" type="moto_motorcycle" depart="1855.20" departLane="best">
        <route edges="-5962129#1"/>
    </vehicle>
    <vehicle id="moto138" type="moto_motorcycle" depart="1868.74" departLane="best" departSpeed="max">
        <route edges="-5955850#2 -5955850#1 -5955850#0 5962129#0 5962129#1 5962129#2 5962129#3 5962129#4 5962129#5 593766965 593766964 593766963 593766961 436291018 436291020#0 436291020#1 436291020#2 436291019 278328405#1 436291029"/>
    </vehicle>
    <vehicle id="moto140" type="moto_motorcycle" depart="1895.82" departLane="best">
        <route edges="5962129#3 5962129#4 5962129#5 593766965 593766964 593766963 593766961 436291018 641705063#0 641705063#1 641705063#2 641705063#3 641705064#0 641705064#1 436291031 436291062 436291064#0 436291064#1 642337372 642337373 234953562"/>
    </vehicle>
    <vehicle id="moto141" type="moto_motorcycle" depart="1909.37" departLane="best">
        <route edges="593766961 436291018 641705063#0 641705063#1 641705063#2 641705063#3 641705065 634644489 36054466#0 36054466#1 36054466#2"/>
    </vehicle>
    <vehicle id="moto144" type="moto_motorcycle" depart="1949.99" departLane="best">
        <route edges="436291016#2 436291016#3 5962129#0 5962129#1 419814433#2 419814433#4 641705065 634644489 36054466#0 36054466#1 36054466#2 36054466#3"/>
    </vehicle>
    <vehicle id="moto145" type="moto_motorcycle" depart="1963.53" departLane="best">
        <route edges="-419814433#1 -419814433#0 419814433#0 419814433#1 -5962129#1 -5962129#0 5955850#0 6024091#2"/>
    </vehicle>