<?xml version="1.0" encoding="UTF-8"?>

<!-- generated on 04/28/20 20:26:51 by Eclipse SUMO duarouter Version 1.3.1
<configuration xmlns:xsi="http://www.w3.org/2001/XMLSchema-instance" xsi:noNamespaceSchemaLocation="http://sumo.dlr.de/xsd/duarouterConfiguration.xsd">

    <input>
        <net-file value="osm.net.xml"/>
        <route-files value="osm.bicycle.trips.xml"/>
    </input>

    <output>
        <output-file value="osm.bicycle.rou.xml"/>
        <alternatives-output value="osm.bicycle.rou.alt.xml"/>
    </output>

    <time>
        <begin value="0"/>
        <end value="3600.0"/>
    </time>

    <report>
        <no-warnings value="true"/>
        <ignore-errors value="true"/>
        <no-step-log value="true"/>
    </report>

</configuration>
-->

<routes xmlns:xsi="http://www.w3.org/2001/XMLSchema-instance" xsi:noNamespaceSchemaLocation="http://sumo.dlr.de/xsd/routes_file.xsd">
    <vType id="bike_bicycle" vClass="bicycle"/>
    <vehicle id="bike0" type="bike_bicycle" depart="0.00" departLane="best">
        <route edges="578934718#0 -578934718#0 578934718#2 578934718#3 436291016#1 436291016#2 436291016#3 5962129#0 5962129#1 -419814433#1 -419814433#0"/>
    </vehicle>
    <vehicle id="bike1" type="bike_bicycle" depart="7.58" departLane="best">
        <route edges="-5955850#0 5962129#0 5962129#1 5962129#2 5962129#3 5962129#4 5962129#5 593766965 gneE0 593766961 436291018 641705063#0 641705063#1 641705063#2 578942370 578942369#0 578942369#1 -578942372#1"/>
    </vehicle>
    <vehicle id="bike3" type="bike_bicycle" depart="22.73" departLane="best">
        <route edges="623099335 578934722 -578934723 578934724#2 -578934726 -419814433#2 -419814433#1 -578934700#1 -578934700#0"/>
    </vehicle>
    <vehicle id="bike4" type="bike_bicycle" depart="30.30" departLane="best">
        <route edges="436291016#0 436291016#1 436291016#2 436291016#3 5962129#0 5962129#1 -419814433#1"/>
    </vehicle>
    <vehicle id="bike5" type="bike_bicycle" depart="37.88" departLane="best">
        <route edges="-578942367#1 -578942367#0 -578942371#2 -578942370 641705063#3 641705064#0 641705064#1 436291031 436291062 436291064#0 436291064#1 642337372 641705146#0 641705146#1 -578605862#2 578605861#0 578605861#1 578605861#2"/>
    </vehicle>
    <vehicle id="bike7" type="bike_bicycle" depart="53.03" departLane="best">
        <route edges="578934718#2 -578934717#0 436291064#1 642337372 641705146#0 641705146#1 -578605862#2 578934691#0 578934691#1"/>
    </vehicle>
    <vehicle id="bike8" type="bike_bicycle" depart="60.60" departLane="best">
        <route edges="-578942367#2 578942368#1 578942371#1 -578942370 641705063#3 641705064#0 641705064#1 436291031 436291016#0 436291016#1 436291016#2 436291016#3 5955850#0 5955850#1 578934709#1"/>
    </vehicle>
    <vehicle id="bike9" type="bike_bicycle" depart="68.18" departLane="best" departSpeed="max">
        <route edges="578942375 436291020#2 436291019 642751754#0 -184711458 -89927838#0 89927838#0 -184711460"/>
    </vehicle>
    <vehicle id="bike10" type="bike_bicycle" depart="75.75" departLane="best">
        <route edges="578942374 36054466#4 36054466#5 36054466#6 36054466#7 36054466#8 36054466#9 5962129#4 5962129#5 593766965 578942357"/>
    </vehicle>
    <vehicle id="bike11" type="bike_bicycle" depart="83.33" departLane="best">
        <route edges="36054466#0 36054466#1 36054466#2 36054466#3 36054466#4 641705063#2 641705063#3 641705064#0 641705064#1 436291031 436291016#0 -578934718#3"/>
    </vehicle>
    <vehicle id="bike12" type="bike_bicycle" depart="90.91" departLane="best">
        <route edges="642337374#1 642337373 234953562 634644489 36054466#0 36054466#1 36054466#2 36054466#3"/>
    </vehicle>
    <vehicle id="bike13" type="bike_bicycle" depart="98.48" departLane="best">
        <route edges="-578934700#1 -578934700#0 -5962129#0 5955850#0 5955850#1 -578934709#0"/>
    </vehicle>
    <vehicle id="bike14" type="bike_bicycle" depart="106.06" departLane="best">
        <route edges="5962129#1 419814433#2 419814433#4 641705064#0 641705064#1 436291031 436291062 436291064#0 578934717#0 -578934718#2 578934718#0 578934716"/>
    </vehicle>
    <vehicle id="bike15" type="bike_bicycle" depart="113.63" departLane="best">
        <route edges="578942374 36054466#4 36054466#5 36054466#6 36054466#7 36054466#8 578942362"/>
    </vehicle>
    <vehicle id="bike17" type="bike_bicycle" depart="128.78" departLane="best">
        <route edges="36054466#8 578942362 -5962129#2 -5962129#1 -5962129#0 436291016#4 436291016#5 436291016#6 436291016#7 436291016#8 578934698"/>
    </vehicle>
    <vehicle id="bike18" type="bike_bicycle" depart="136.36" departLane="best">
        <route edges="593766965 gneE0 593766961 436291018 641705063#0 641705063#1 641705063#2 641705063#3 641705064#0 641705064#1 436291031 436291062 436291064#0 578934717#0 578934717#1"/>
    </vehicle>
    <vehicle id="bike19" type="bike_bicycle" depart="143.93" departLane="best">
        <route edges="5962129#5 593766965 578942357 -578942357 -593766965 -5962129#5 -5962129#4 -5962129#3 -5962129#2 -5962129#1 -5962129#0 436291016#4 578934702"/>
    </vehicle>
    <vehicle id="bike20" type="bike_bicycle" depart="151.51" departLane="best">
        <route edges="578942358 -5962129#4 -5962129#3 -5962129#2 -5962129#1 -5962129#0 5955850#0 6024091#2 6024091#3 6024091#5 642337372 641705146#0 641705146#1 -578605862#2 578605861#0 -578605861#2 -578605861#1"/>
    </vehicle>
    <vehicle id="bike21" type="bike_bicycle" depart="159.08" departLane="best">
        <route edges="-578942371#0 578942371#0 578942371#1 -578942370 641705063#3 641705065 634644489 -89927838#3 -89927838#0"/>
    </vehicle>
    <vehicle id="bike22" type="bike_bicycle" depart="166.66" departLane="best" departSpeed="max">
        <route edges="-578934699 -578934700#0 5962129#1 5962129#2 5962129#3 5962129#4 5962129#5 593766965 gneE0 593766961 436291018 436291020#0 436291020#1 -578942375"/>
    </vehicle>
    <vehicle id="bike23" type="bike_bicycle" depart="174.24" departLane="best" departSpeed="max">
        <route edges="-578934709#1 -5955850#1 -5955850#0 5962129#0 5962129#1 5962129#2 5962129#3 5962129#4 5962129#5 593766965 578942357 -578942357 -593766965 -5962129#5"/>
    </vehicle>
    <vehicle id="bike24" type="bike_bicycle" depart="181.81" departLane="best">
        <route edges="578934717#0 -578934718#2 578934718#2 -578934717#0 436291064#1 642337372 642337373 234953562 634644489 36054466#0 36054466#1 36054466#2 36054466#3 36054466#4 36054466#5 36054466#6 36054466#7 36054466#8 36054466#9"/>
    </vehicle>
    <vehicle id="bike25" type="bike_bicycle" depart="189.39" departLane="best">
        <route edges="36054466#6 36054466#7 36054466#8 36054466#9 5962129#4 5962129#5 593766965 gneE0 593766961 436291018 641705063#0 641705063#1 641705063#2 578942370 -578942371#1"/>
    </vehicle>
    <vehicle id="bike26" type="bike_bicycle" depart="196.96" departLane="best" departSpeed="max">
        <route edges="-593766962#1 -593766960 593766961 436291018 641705063#0 641705063#1 641705063#2 641705063#3 641705065"/>
    </vehicle>
    <vehicle id="bike27" type="bike_bicycle" depart="204.54" departLane="best">
        <route edges="578934718#2 -578934717#0 436291064#1 642337372 642337373 436291011 436291010 436291062 436291064#0 578934717#0"/>
    </vehicle>
    <vehicle id="bike28" type="bike_bicycle" depart="212.11" departLane="best" departSpeed="max">
        <route edges="-578942344 89922370#5 641705063#0 641705063#1 36054466#5 36054466#6 36054466#7 36054466#8 578942362"/>
    </vehicle>
    <vehicle id="bike29" type="bike_bicycle" depart="219.69" departLane="best" departSpeed="max">
        <route edges="-578942334 578942335 -593766960 gneE1 -593766965 -5962129#5 -5962129#4 -5962129#3 -5962129#2 419814433#2 419814433#4"/>
    </vehicle>
    <vehicle id="bike30" type="bike_bicycle" depart="227.26" departLane="best">
        <route edges="89927838#3 36054466#0 36054466#1 36054466#2 36054466#3 36054466#4 641705063#2 641705063#3 641705064#0 578934719"/>
    </vehicle>
    <vehicle id="bike31" type="bike_bicycle" depart="234.84" departLane="best" departSpeed="max">
        <route edges="578934692 642337374#1 642337373 436291011 436291010 436291016#0 436291016#1 436291016#2 436291016#3 5962129#0 5962129#1 5962129#2 5962129#3 5962129#4 5962129#5 593766965 gneE0 593766961 436291018 641705063#0 578942355 578942354#0 578942354#1"/>
    </vehicle>
    <vehicle id="bike32" type="bike_bicycle" depart="242.41" departLane="best">
        <route edges="5962129#0 5962129#1 5962129#2 5962129#3 5962129#4 5962129#5 593766965 gneE0 593766961 436291018 641705063#0 641705063#1 641705063#2 578942370 578942369#0"/>
    </vehicle>
    <vehicle id="bike33" type="bike_bicycle" depart="249.99" departLane="best">
        <route edges="-578942371#0 578942371#0 578942371#1 -578942370 641705063#3 -419814433#4 -419814433#2"/>
    </vehicle>
    <vehicle id="bike34" type="bike_bicycle" depart="257.57" departLane="best">
        <route edges="-5962129#5 -5962129#4 -5962129#3 -5962129#2"/>
    </vehicle>
    <vehicle id="bike35" type="bike_bicycle" depart="265.14" departLane="best">
        <route edges="-578942367#0 -578942371#2 -578942370 641705063#3 641705064#0 641705064#1 436291031 436291062 436291064#0 436291064#1 642337372 641705146#0 641705146#1"/>
    </vehicle>
    <vehicle id="bike36" type="bike_bicycle" depart="272.72" departLane="best">
        <route edges="6024091#2 6024091#3 6024091#5 642337372 642337373 234953562 634644489 36054466#0"/>
    </vehicle>
    <vehicle id="bike37" type="bike_bicycle" depart="280.29" departLane="best">
        <route edges="578934718#3 436291016#1 436291016#2 436291016#3 5962129#0 5962129#1 419814433#2 419814433#4 641705064#0 641705064#1 436291031 436291016#0"/>
    </vehicle>
    <vehicle id="bike38" type="bike_bicycle" depart="287.87" departLane="best">
        <route edges="641705063#3 -419814433#4 -419814433#2 5962129#2 5962129#3 5962129#4 5962129#5 593766965 gneE0 593766961 436291018 436291020#0"/>
    </vehicle>
    <vehicle id="bike39" type="bike_bicycle" depart="295.44" departLane="best" departSpeed="max">
        <route edges="-593766962#1 -593766960 gneE1 -593766965 -5962129#5 -5962129#4 -5962129#3 -5962129#2 -5962129#1 -5962129#0 5955850#0 5955850#1 -578934709#0 578934709#0 -5955850#1 -5955850#0"/>
    </vehicle>
    <vehicle id="bike41" type="bike_bicycle" depart="310.59" departLane="best" departSpeed="max">
        <route edges="578934709#0 -5955850#1 -5955850#0 5962129#0 5962129#1 419814433#2 578934726 578934724#0 578934723 623099335"/>
    </vehicle>
    <vehicle id="bike42" type="bike_bicycle" depart="318.17" departLane="best">
        <route edges="419814433#2 419814433#4 641705065 634644489 36054466#0 36054466#1 36054466#2 -578942365 578942372#0 578942372#1 -578942372#1"/>
    </vehicle>
    <vehicle id="bike43" type="bike_bicycle" depart="325.74" departLane="best">
        <route edges="gneE1 -593766965 -5962129#5 -5962129#4 -5962129#3 -5962129#2 -5962129#1 -5962129#0 5955850#0 6024091#2 6024091#3 6024091#5 642337372 641705146#0 641705146#1 -578605862#2 578605862#2"/>
    </vehicle>
    <vehicle id="bike44" type="bike_bicycle" depart="333.32" departLane="best">
        <route edges="-578934700#1 -578934700#0 -5962129#0 5955850#0 6024091#2 6024091#3 6024091#5 642337372 641705146#0 641705146#1 -578605862#2 578605861#0 -578605861#2 -578605861#1"/>
    </vehicle>
    <vehicle id="bike45" type="bike_bicycle" depart="340.90" departLane="best">
        <route edges="-578934717#0 436291064#1 642337372 642337373 436291011 436291010 436291062 436291064#0 578934717#0 -578934718#2 -578934718#1 578934718#1"/>
    </vehicle>
    <vehicle id="bike46" type="bike_bicycle" depart="348.47" departLane="best">
        <route edges="578942372#0 578942368#0 578942368#1 578942371#1 -578942370 641705063#3 641705064#0 641705064#1 436291031 436291016#0 436291016#1 436291016#2 436291016#3 436291016#4"/>
    </vehicle>
    <vehicle id="bike48" type="bike_bicycle" depart="363.62" departLane="best">
        <route edges="gneE1 -593766965 -5962129#5 -5962129#4 -5962129#3 -5962129#2 -5962129#1 -5962129#0 5955850#0 6024091#2 6024091#3 6024091#5 642337372 641705146#0 641705146#1 -578605862#2 578934691#0 578934690"/>
    </vehicle>
    <vehicle id="bike49" type="bike_bicycle" depart="371.20" departLane="best" departSpeed="max">
        <route edges="89922370#0 89922370#5 641705063#0 641705063#1 641705063#2 641705063#3 641705064#0 641705064#1 436291031 436291016#0 436291016#1 436291016#2 436291016#3 5962129#0"/>
    </vehicle>
    <vehicle id="bike50" type="bike_bicycle" depart="378.77" departLane="best">
        <route edges="-419814433#1 -578934700#1 -578934700#0 5962129#1 5962129#2 5962129#3 5962129#4 -578942358 578942360#1 578942361#1"/>
    </vehicle>
    <vehicle id="bike51" type="bike_bicycle" depart="386.35" departLane="best">
        <route edges="578934726 578934724#0 -578934719 641705064#1 436291031 436291062 436291064#0 436291064#1 642337372 641705146#0 641705146#1 -578605862#2 578934691#0"/>
    </vehicle>
    <vehicle id="bike52" type="bike_bicycle" depart="393.92" departLane="best" departSpeed="max">
        <route edges="-593766962#1 -593766960 593766961 436291018 641705063#0 641705063#1 641705063#2 641705063#3 641705064#0 578934719"/>
    </vehicle>
    <vehicle id="bike53" type="bike_bicycle" depart="401.50" departLane="best">
        <route edges="-578934717#0 436291064#1 642337372 642337373 436291011 436291010 436291016#0 436291016#1 436291016#2 436291016#3 436291016#4 436291016#5 436291016#6 436291016#7"/>
    </vehicle>
    <vehicle id="bike55" type="bike_bicycle" depart="416.65" departLane="best">
        <route edges="6024091#2 6024091#3 6024091#5 642337372 642337373 234953562 -641705065 -419814433#4 -419814433#2 -5962129#1"/>
    </vehicle>
    <vehicle id="bike56" type="bike_bicycle" depart="424.23" departLane="best">
        <route edges="436291062 436291064#0 436291064#1 642337372 642337373 234953562 634644489 36054466#0 36054466#1 36054466#2 -578942365"/>
    </vehicle>
    <vehicle id="bike57" type="bike_bicycle" depart="431.80" departLane="best">
        <route edges="641705063#3 -419814433#4 -419814433#2 5962129#2"/>
    </vehicle>
    <vehicle id="bike58" type="bike_bicycle" depart="439.38" departLane="best">
        <route edges="-5962129#1 578934700#0 578934700#1 419814433#1 419814433#2 419814433#4 641705064#0 578934719"/>
    </vehicle>
    <vehicle id="bike59" type="bike_bicycle" depart="446.95" departLane="best">
        <route edges="578934713#1 -578934712 6024091#3 6024091#5 642337372 642337373 436291011 436291010 436291016#0 -578934718#3"/>
    </vehicle>
    <vehicle id="bike60" type="bike_bicycle" depart="454.53" departLane="best">
        <route edges="578942368#1 578942371#1 -578942370 641705063#3 641705064#0 641705064#1 436291031 436291062 436291064#0 436291064#1 642337372 641705146#0 641705146#1 -578605862#2 578934691#0"/>
    </vehicle>
    <vehicle id="bike61" type="bike_bicycle" depart="462.10" departLane="best">
        <route edges="578942371#0 578942371#1 -578942370 641705063#3 641705064#0 641705064#1 436291031 436291062 436291064#0 436291064#1 642337372 641705146#0 641705146#1 -578605862#2 578934691#0 578934690"/>
    </vehicle>
    <vehicle id="bike62" type="bike_bicycle" depart="469.68" departLane="best">
        <route edges="-184711458 89927838#3 36054466#0 36054466#1 36054466#2 36054466#3 36054466#4 36054466#5 36054466#6 36054466#7 36054466#8 36054466#9 36054466#10"/>
    </vehicle>
    <vehicle id="bike63" type="bike_bicycle" depart="477.25" departLane="best">
        <route edges="-419814433#4 419814433#4 641705064#0 641705064#1"/>
    </vehicle>
    <vehicle id="bike64" type="bike_bicycle" depart="484.83" departLane="best">
        <route edges="6024091#2 6024091#3 6024091#5 642337372 642337373 436291011 436291010 436291016#0 436291016#1 436291016#2 436291016#3 5962129#0 5962129#1 5962129#2 5962129#3 5962129#4 5962129#5 593766965 gneE0 593766960 593766962#0"/>
    </vehicle>
    <vehicle id="bike65" type="bike_bicycle" depart="492.40" departLane="best">
        <route edges="-5962129#3 -5962129#2 -5962129#1 -5962129#0 5955850#0 6024091#2 6024091#3 6024091#5 642337372 641705146#0 641705146#1 -578605862#2 -578605862#0"/>
    </vehicle>
    <vehicle id="bike66" type="bike_bicycle" depart="499.98" departLane="best">
        <route edges="6024091#2 6024091#3 6024091#5 642337372"/>
    </vehicle>
    <vehicle id="bike67" type="bike_bicycle" depart="507.56" departLane="best">
        <route edges="-578934700#0 5962129#1 419814433#2 419814433#4 641705064#0 641705064#1 436291031 436291062"/>
    </vehicle>
    <vehicle id="bike69" type="bike_bicycle" depart="522.71" departLane="best">
        <route edges="578942369#0 -578942367#0 -578942371#2 -578942370 641705063#3 641705064#0 641705064#1 436291031 436291016#0 436291016#1 -578934715"/>
    </vehicle>
    <vehicle id="bike70" type="bike_bicycle" depart="530.28" departLane="best">
        <route edges="436291020#0 436291020#1 436291020#2 436291019 642751754#0 -184711458 89927838#3 36054466#0 36054466#1 36054466#2 36054466#3 36054466#4 641705063#2 641705063#3 641705064#0 641705064#1 436291031 436291016#0 436291016#1 436291016#2 436291016#3 436291016#4 436291016#5 436291016#6 436291016#7 436291016#8 578934698"/>
    </vehicle>
    <vehicle id="bike71" type="bike_bicycle" depart="537.86" departLane="best" departSpeed="max">
        <route edges="-593766962#1 -593766960 593766961 436291018 641705063#0 641705063#1 36054466#5 36054466#6 36054466#7 36054466#8 578942362 5962129#3"/>
    </vehicle>
    <vehicle id="bike72" type="bike_bicycle" depart="545.43" departLane="best">
        <route edges="436291016#0 436291016#1 436291016#2 436291016#3 5962129#0 5962129#1 5962129#2 5962129#3 5962129#4 5962129#5 593766965 gneE0 593766961 436291018 641705063#0 641705063#1 641705063#2 578942370 578942371#2 -578942371#2"/>
    </vehicle>
    <vehicle id="bike74" type="bike_bicycle" depart="560.58" departLane="best" departSpeed="max">
        <route edges="-578942364 419814433#4 641705065 634644489 278328405#0 278328405#1"/>
    </vehicle>
    <vehicle id="bike75" type="bike_bicycle" depart="568.16" departLane="best">
        <route edges="gneE0 593766961 436291018 641705063#0 641705063#1 641705063#2 641705063#3 641705064#0 578934719 578934723"/>
    </vehicle>
    <vehicle id="bike77" type="bike_bicycle" depart="583.31" departLane="best">
        <route edges="-578934718#0 578934718#2 -578934717#0 436291064#1 642337372 642337373 234953562 634644489 36054466#0 36054466#1 36054466#2 -578942365 -578942367#2 -578942367#1 -578942367#0 -578942372#2"/>
    </vehicle>
    <vehicle id="bike79" type="bike_bicycle" depart="598.46" departLane="best">
        <route edges="-578942371#0 578942372#0 578942372#1 -578942372#1"/>
    </vehicle>
    <vehicle id="bike81" type="bike_bicycle" depart="613.61" departLane="best">
        <route edges="-578942371#0 578942371#0 578942371#1 -578942370 641705063#3 641705065 634644489"/>
    </vehicle>
    <vehicle id="bike82" type="bike_bicycle" depart="621.19" departLane="best">
        <route edges="5962129#4 5962129#5 593766965 gneE0 593766961 436291018 641705063#0 641705063#1 641705063#2 641705063#3 641705064#0 641705064#1 436291031 436291062 436291064#0 436291064#1 642337372 641705146#0 641705146#1 -578605862#2 578934691#0 -578934691#0"/>
    </vehicle>
    <vehicle id="bike83" type="bike_bicycle" depart="628.76" departLane="best">
        <route edges="-578942371#2 -578942370 641705063#3 641705065 634644489 36054466#0 578942331"/>
    </vehicle>
    <vehicle id="bike84" type="bike_bicycle" depart="636.34" departLane="best">
        <route edges="-578942367#0 -578942371#2 -578942370 641705063#3 641705064#0 641705064#1 436291031 436291016#0 436291016#1 -578934715"/>
    </vehicle>
    <vehicle id="bike86" type="bike_bicycle" depart="651.49" departLane="best">
        <route edges="436291019 642751754#0 -184711458 89927838#3 36054466#0 36054466#1 36054466#2 36054466#3 36054466#4 641705063#2 578942370"/>
    </vehicle>
    <vehicle id="bike87" type="bike_bicycle" depart="659.07" departLane="best">
        <route edges="578942374 36054466#4 641705063#2 578942370 578942369#0 578942367#1 -578942367#1"/>
    </vehicle>
    <vehicle id="bike88" type="bike_bicycle" depart="666.64" departLane="best" departSpeed="max">
        <route edges="-578934709#1 -5955850#1 -5955850#0 436291016#4 436291016#5 436291016#6"/>
    </vehicle>
    <vehicle id="bike89" type="bike_bicycle" depart="674.22" departLane="best">
        <route edges="436291016#0 436291016#1 436291016#2 436291016#3 5962129#0 5962129#1 5962129#2 5962129#3 5962129#4 5962129#5 593766965 gneE0 593766961 436291018 436291020#0 436291020#1 436291020#2"/>
    </vehicle>
    <vehicle id="bike90" type="bike_bicycle" depart="681.79" departLane="best">
        <route edges="578942362 -5962129#2 419814433#2 419814433#4 641705065 634644489 36054466#0 578942331"/>
    </vehicle>
    <vehicle id="bike91" type="bike_bicycle" depart="689.37" departLane="best" departSpeed="max">
        <route edges="89927838#0 89927838#3 36054466#0 36054466#1 36054466#2 36054466#3 36054466#4 641705063#2 641705063#3 641705064#0 641705064#1 436291031 436291016#0 436291016#1 436291016#2 436291016#3 5955850#0 5955850#1 -578934709#0"/>
    </vehicle>
    <vehicle id="bike92" type="bike_bicycle" depart="696.94" departLane="best">
        <route edges="419814433#4 641705065 634644489 36054466#0 36054466#1 36054466#2 36054466#3 36054466#4"/>
    </vehicle>
    <vehicle id="bike93" type="bike_bicycle" depart="704.52" departLane="best">
        <route edges="5962129#5 593766965 578942357 -578942357 -593766965 -5962129#5 -5962129#4 -5962129#3 -5962129#2 -5962129#1 -5962129#0 5955850#0 5955850#1 -578934709#0 578934709#0 -5955850#1 -5955850#0"/>
    </vehicle>
    <vehicle id="bike94" type="bike_bicycle" depart="712.09" departLane="best" departSpeed="max">
        <route edges="-578942357 gneE0 593766961 436291018"/>
    </vehicle>
    <vehicle id="bike95" type="bike_bicycle" depart="719.67" departLane="best">
        <route edges="436291016#0 436291016#1 436291016#2 436291016#3 5962129#0 5962129#1 5962129#2 5962129#3 5962129#4 5962129#5 593766965 578942357 -578942357 -593766965 -5962129#5"/>
    </vehicle>
    <vehicle id="bike96" type="bike_bicycle" depart="727.24" departLane="best">
        <route edges="-578942372#1 578942368#0 578942368#1 578942371#1 -578942370 641705063#3"/>
    </vehicle>
    <vehicle id="bike98" type="bike_bicycle" depart="742.40" departLane="best" departSpeed="max">
        <route edges="578934692 642337374#1 641705146#0 641705146#1 -578605862#2 578605861#0 -578605861#2"/>
    </vehicle>
    <vehicle id="bike99" type="bike_bicycle" depart="749.97" departLane="best">
        <route edges="gneE1 -593766965 -5962129#5 -578942358 578942360#1 578942361#1 578942361#2 593766965"/>
    </vehicle>
    <vehicle id="bike100" type="bike_bicycle" depart="757.55" departLane="best" departSpeed="max">
        <route edges="89922370#0 89922370#5 641705063#0 641705063#1 641705063#2 641705063#3 641705064#0"/>
    </vehicle>
    <vehicle id="bike101" type="bike_bicycle" depart="765.12" departLane="best">
        <route edges="5962129#2 5962129#3 5962129#4 5962129#5 593766965 578942357 -578942357 -593766965 -5962129#5 -5962129#4 -5962129#3 -5962129#2 419814433#2 578934726 578934724#0 578934724#2 -578934726"/>
    </vehicle>
    <vehicle id="bike102" type="bike_bicycle" depart="772.70" departLane="best">
        <route edges="436291020#2 436291019 642751754#0 -184711458 89927838#3 36054466#0 36054466#1 36054466#2 -578942365 -578942367#2 -578942367#1 -578942367#0 -578942371#2"/>
    </vehicle>
    <vehicle id="bike103" type="bike_bicycle" depart="780.27" departLane="best">
        <route edges="419814433#2 419814433#4 641705064#0 641705064#1 436291031 436291062 436291064#0 436291064#1 642337372 641705146#0 641705146#1 -578605862#2 -578605862#0"/>
    </vehicle>
    <vehicle id="bike105" type="bike_bicycle" depart="795.42" departLane="best" departSpeed="max">
        <route edges="-593766962#1 -593766960 593766961 436291018 641705063#0 641705063#1 641705063#2 578942370"/>
    </vehicle>
    <vehicle id="bike107" type="bike_bicycle" depart="810.57" departLane="best">
        <route edges="642337374#1 642337373 436291011 436291010 436291016#0 436291016#1 436291016#2 436291016#3 5962129#0 5962129#1 5962129#2 5962129#3 5962129#4 5962129#5 593766965 gneE0"/>
    </vehicle>
    <vehicle id="bike108" type="bike_bicycle" depart="818.15" departLane="best" departSpeed="max">
        <route edges="578934692 642337374#1 642337373 234953562 634644489 36054466#0 36054466#1 36054466#2 36054466#3 36054466#4 36054466#5 578942361#0"/>
    </vehicle>
    <vehicle id="bike109" type="bike_bicycle" depart="825.73" departLane="best" departSpeed="max">
        <route edges="-578942331 36054466#1 36054466#2 36054466#3 36054466#4 641705063#2 641705063#3 641705065 634644489 -89927838#3"/>
    </vehicle>
    <vehicle id="bike110" type="bike_bicycle" depart="833.30" departLane="best" departSpeed="max">
        <route edges="89922370#0 89922370#5 641705063#0 641705063#1 641705063#2 641705063#3 641705064#0 641705064#1 436291031 436291016#0 436291016#1 436291016#2 436291016#3 436291016#4 578934702"/>
    </vehicle>
    <vehicle id="bike113" type="bike_bicycle" depart="856.03" departLane="best">
        <route edges="436291062 436291064#0 578934717#0 578934718#3 436291016#1 436291016#2 436291016#3 5955850#0 5955850#1 5955850#2"/>
    </vehicle>
    <vehicle id="bike114" type="bike_bicycle" depart="863.60" departLane="best" departSpeed="max">
        <route edges="-578942331 36054466#1 36054466#2 36054466#3 36054466#4 641705063#2 641705063#3 641705064#0 641705064#1 436291031 436291062 436291064#0 436291064#1 642361032"/>
    </vehicle>
    <vehicle id="bike115" type="bike_bicycle" depart="871.18" departLane="best" departSpeed="max">
        <route edges="-578934699 -578934700#0 5962129#1 5962129#2 5962129#3 5962129#4 5962129#5 593766965 gneE0 593766961 436291018 641705063#0 641705063#1 641705063#2 578942370 578942369#0 -578942367#0"/>
    </vehicle>
    <vehicle id="bike117" type="bike_bicycle" depart="886.33" departLane="best">
        <route edges="-578942371#1 578942371#1 -578942370 641705063#3 641705064#0 641705064#1 436291031 436291016#0 436291016#1 436291016#2 -578934714"/>
    </vehicle>
    <vehicle id="bike118" type="bike_bicycle" depart="893.90" departLane="best">
        <route edges="623099335 578934722 -578934723 578934724#2 -578934726 -419814433#2 -5962129#1 -5962129#0 5955850#0 5955850#1 -578934709#0 578934709#0 -5955850#1 -5955850#0"/>
    </vehicle>
    <vehicle id="bike119" type="bike_bicycle" depart="901.48" departLane="best" departSpeed="max">
        <route edges="578934711 6024091#5 642337372 642337373 436291011 436291010 436291062 436291064#0 578934717#0 578934717#1"/>
    </vehicle>
    <vehicle id="bike120" type="bike_bicycle" depart="909.06" departLane="best">
        <route edges="436291013 436291011 436291010 436291016#0 436291016#1 436291016#2 436291016#3 5955850#0 5955850#1 578934709#1"/>
    </vehicle>
    <vehicle id="bike122" type="bike_bicycle" depart="924.21" departLane="best" departSpeed="max">
        <route edges="-578942364 419814433#4 641705065 634644489 36054466#0 36054466#1 36054466#2 36054466#3 36054466#4 36054466#5 578942361#0"/>
    </vehicle>
    <vehicle id="bike123" type="bike_bicycle" depart="931.78" departLane="best">
        <route edges="-578942371#2 -578942370 641705063#3 641705064#0 641705064#1 436291031 436291016#0"/>
    </vehicle>
    <vehicle id="bike124" type="bike_bicycle" depart="939.36" departLane="best">
        <route edges="578934724#0 -578934719 641705064#1 436291031 436291062 436291064#0 436291064#1 642337372 642337373 234953562"/>
    </vehicle>
    <vehicle id="bike125" type="bike_bicycle" depart="946.93" departLane="best">
        <route edges="-5962129#5 -578942358 578942360#1 578942361#1 578942361#2 593766965 gneE0 593766961 436291018 641705063#0 641705063#1 641705063#2 578942370 578942371#2 578942367#0"/>
    </vehicle>
    <vehicle id="bike127" type="bike_bicycle" depart="962.08" departLane="best">
        <route edges="gneE1"/>
    </vehicle>
    <vehicle id="bike129" type="bike_bicycle" depart="977.23" departLane="best" departSpeed="max">
        <route edges="-593766962#1 -593766960 593766961 436291018 641705063#0 641705063#1 641705063#2 641705063#3 641705065"/>
    </vehicle>
    <vehicle id="bike130" type="bike_bicycle" depart="984.81" departLane="best">
        <route edges="6024091#3 6024091#5 642337372 642337373 436291011 436291010 436291016#0 436291016#1 436291016#2 436291016#3 5962129#0 5962129#1 5962129#2 5962129#3 5962129#4"/>
    </vehicle>
    <vehicle id="bike131" type="bike_bicycle" depart="992.39" departLane="best">
        <route edges="36054466#6 36054466#7 36054466#8 578942362 -5962129#2 419814433#2 578934726 578934724#0 -578934719"/>
    </vehicle>
    <vehicle id="bike132" type="bike_bicycle" depart="999.96" departLane="best">
        <route edges="5955850#0 5955850#1 -578934709#0 578934709#0 -5955850#1 -5955850#0 5962129#0 5962129#1 5962129#2 5962129#3 5962129#4 -578942358 578942360#1 578942361#1 578942360#0 578942358"/>
    </vehicle>
    <vehicle id="bike133" type="bike_bicycle" depart="1007.54" departLane="best" departSpeed="max">
        <route edges="578934714 436291016#3 5962129#0 5962129#1 419814433#2 419814433#4 641705065 634644489 -89927838#3 -89927838#0 89927838#0 89927838#3"/>
    </vehicle>
    <vehicle id="bike134" type="bike_bicycle" depart="1015.11" departLane="best">
        <route edges="578934718#3 436291016#1 436291016#2 436291016#3 5962129#0 5962129#1 419814433#2 419814433#4 641705065 634644489 -89927838#3 -184711460"/>
    </vehicle>