<?xml version="1.0" encoding="UTF-8"?>

<!-- generated on Tue Jun  2 10:25:52 2020 by Eclipse SUMO duarouter Version 1.6.0
<configuration xmlns:xsi="http://www.w3.org/2001/XMLSchema-instance" xsi:noNamespaceSchemaLocation="http://sumo.dlr.de/xsd/duarouterConfiguration.xsd">

    <input>
        <net-file value="osm.net.xml"/>
        <route-files value="osm.motorcycle.trips.xml"/>
    </input>

    <output>
        <output-file value="osm.motorcycle.rou.xml"/>
        <alternatives-output value="osm.motorcycle.rou.alt.xml"/>
    </output>

    <time>
        <begin value="0"/>
        <end value="1800.0"/>
    </time>

    <report>
        <no-warnings value="true"/>
        <ignore-errors value="true"/>
        <no-step-log value="true"/>
    </report>

</configuration>
-->

<routes xmlns:xsi="http://www.w3.org/2001/XMLSchema-instance" xsi:noNamespaceSchemaLocation="http://sumo.dlr.de/xsd/routes_file.xsd">
    <vType id="moto_motorcycle" vClass="motorcycle"/>
    <vehicle id="moto1" type="moto_motorcycle" depart="9.53" departLane="best">
        <route edges="36054466#4 641705063#2 641705063#3 641705065 634644489 278328405#0 278328405#1"/>
    </vehicle>
    <vehicle id="moto2" type="moto_motorcycle" depart="19.06" departLane="best">
        <route edges="634644489 36054466#0 36054466#1 36054466#3 36054466#4 641705063#2 641705063#3 641705064#0 436291031 436291016#0 5962129#0"/>
    </vehicle>
    <vehicle id="moto4" type="moto_motorcycle" depart="38.12" departLane="best">
        <route edges="436291013 234953562 -641705065 -419814433#4 -419814433#2 -419814433#1"/>
    </vehicle>
    <vehicle id="moto6" type="moto_motorcycle" depart="57.18" departLane="best">
        <route edges="-419814433#4 419814433#4 641705064#0 436291031 436291062 436291064#1 642337372 642337373 234953562"/>
    </vehicle>
    <vehicle id="moto7" type="moto_motorcycle" depart="66.71" departLane="best">
        <route edges="5962129#0 5962129#2 5962129#3 5962129#4 5962129#5 gneE0 593766961 436291018 436291020#0 436291020#2 436291019 278328405#1 436291029"/>
    </vehicle>
    <vehicle id="moto9" type="moto_motorcycle" depart="85.77" departLane="best">
        <route edges="641705065 634644489 36054466#0 36054466#1 36054466#3 36054466#4 641705063#2 641705063#3 -419814433#4 -419814433#2 -419814433#1 -419814433#0"/>
    </vehicle>
    <vehicle id="moto10" type="moto_motorcycle" depart="95.30" departLane="best">
        <route edges="641705065 634644489 36054466#0 36054466#1 36054466#3 36054466#4 641705063#2 641705063#3 -419814433#4 -419814433#2 5962129#2 5962129#3"/>
    </vehicle>
    <vehicle id="moto11" type="moto_motorcycle" depart="104.83" departLane="best" departSpeed="max">
        <route edges="419814433#0 419814433#1 419814433#2 419814433#4 641705064#0 436291031 436291062 436291064#1 642337372 642337373 234953562 -641705065"/>
    </vehicle>
    <vehicle id="moto12" type="moto_motorcycle" depart="114.36" departLane="best" departSpeed="max">
        <route edges="89927838#0 89927838#3 36054466#0 36054466#1 36054466#3 36054466#4 36054466#5 36054466#6 36054466#7 36054466#8"/>
    </vehicle>
    <vehicle id="moto14" type="moto_motorcycle" depart="133.42" departLane="best">
        <route edges="642337372 642337373 436291011 436291010 436291016#0 5962129#0 5962129#2 5962129#3 5962129#4 5962129#5 gneE0 593766960 593766962#0"/>
    </vehicle>
    <vehicle id="moto15" type="moto_motorcycle" depart="142.94" departLane="best">
        <route edges="641705065 634644489 36054466#0 36054466#1 36054466#3 36054466#4 36054466#5 36054466#6 36054466#7 36054466#8 36054466#9 -5962129#3 -5962129#2 -5962129#1 5955850#0 6024091#2"/>
    </vehicle>
    <vehicle id="moto16" type="moto_motorcycle" depart="152.47" departLane="best">
        <route edges="436291031 436291062 436291064#1 642337372 642337373 234953562 634644489 -89927838#3 -89927838#0 89927838#0 89927838#3"/>
    </vehicle>
    <vehicle id="moto17" type="moto_motorcycle" depart="162.00" departLane="best">
        <route edges="419814433#2 419814433#4 641705064#0 436291031"/>
    </vehicle>
    <vehicle id="moto19" type="moto_motorcycle" depart="181.06" departLane="best" departSpeed="max">
        <route edges="642337374#0 642337374#1 642337373 436291011 436291010 436291062 436291064#1"/>
    </vehicle>
    <vehicle id="moto20" type="moto_motorcycle" depart="190.59" departLane="best">
        <route edges="6024091#2 6024091#3 6024091#5 642337372 642337373 234953562 -641705065 -419814433#4"/>
    </vehicle>
    <vehicle id="moto22" type="moto_motorcycle" depart="209.65" departLane="best">
        <route edges="-593766965 -5962129#4 -5962129#3 -5962129#2 419814433#2 419814433#4 641705065 634644489 36054466#0"/>
    </vehicle>
    <vehicle id="moto23" type="moto_motorcycle" depart="219.18" departLane="best">
        <route edges="-5955850#1 -5955850#0 5962129#0 419814433#2 419814433#4 641705065 634644489 36054466#0 36054466#1 36054466#3"/>
    </vehicle>
    <vehicle id="moto25" type="moto_motorcycle" depart="238.24" departLane="best">
        <route edges="419814433#1 419814433#2 419814433#4 641705065 634644489 278328405#0"/>
    </vehicle>
    <vehicle id="moto26" type="moto_motorcycle" depart="247.77" departLane="best">
        <route edges="36054466#3 36054466#4 641705063#2 641705063#3 641705065 634644489 278328405#0 642751754#0 642751754#1"/>
    </vehicle>
    <vehicle id="moto27" type="moto_motorcycle" depart="257.30" departLane="best">
        <route edges="5962129#0 5962129#2 5962129#3 5962129#4 5962129#5 gneE0 593766960 593766962#0"/>
    </vehicle>
    <vehicle id="moto28" type="moto_motorcycle" depart="266.83" departLane="best">
        <route edges="-5962129#4 -5962129#3 -5962129#2 -5962129#1 5955850#0 6024091#2"/>
    </vehicle>
    <vehicle id="moto29" type="moto_motorcycle" depart="276.36" departLane="best">
        <route edges="-5962129#4 -5962129#3 -5962129#2 419814433#2 419814433#4"/>
    </vehicle>
    <vehicle id="moto30" type="moto_motorcycle" depart="285.89" departLane="best">
        <route edges="gneE1 -593766965 -5962129#4 -5962129#3 -5962129#2 -5962129#1 5955850#0 5955850#1"/>
    </vehicle>
    <vehicle id="moto31" type="moto_motorcycle" depart="295.42" departLane="best">
        <route edges="436291062 436291064#1 642337372 642337373 436291011 436291010 436291016#0 5962129#0 5962129#2"/>
    </vehicle>
    <vehicle id="moto32" type="moto_motorcycle" depart="304.95" departLane="best">
        <route edges="642337372 642337373 436291011 436291010 436291016#0 5962129#0 5962129#2 5962129#3 5962129#4 5962129#5 gneE0 593766961 436291018 641705063#0"/>
    </vehicle>
    <vehicle id="moto34" type="moto_motorcycle" depart="324.01" departLane="best">
        <route edges="36054466#8 36054466#9 36054466#10"/>
    </vehicle>
    <vehicle id="moto35" type="moto_motorcycle" depart="333.54" departLane="best">
        <route edges="278328405#0 642751754#0 642751754#1"/>
    </vehicle>
    <vehicle id="moto36" type="moto_motorcycle" depart="343.07" departLane="best" departSpeed="max">
        <route edges="642337374#0 642337374#1 642337373 234953562 634644489 36054466#0 36054466#1 36054466#3 36054466#4 36054466#5 36054466#6"/>
    </vehicle>
    <vehicle id="moto37" type="moto_motorcycle" depart="352.60" departLane="best">
        <route edges="5962129#2 5962129#3 5962129#4 5962129#5 gneE0 593766961 436291018 641705063#0 641705063#1 641705063#2 641705063#3 641705064#0 436291031 436291062 436291064#1 642337372 642337373 436291011 436291010"/>
    </vehicle>
    <vehicle id="moto38" type="moto_motorcycle" depart="362.13" departLane="best" departSpeed="max">
        <route edges="89922370#0 89922370#5 641705063#0 641705063#1 641705063#2 641705063#3 641705064#0 436291031 436291016#0 436291016#4"/>
    </vehicle>
    <vehicle id="moto39" type="moto_motorcycle" depart="371.66" departLane="best">
        <route edges="36054466#3 36054466#4 641705063#2 641705063#3 641705065 634644489 36054466#0 36054466#1"/>
    </vehicle>
    <vehicle id="moto40" type="moto_motorcycle" depart="381.19" departLane="best">
        <route edges="436291064#1 642337372 642337373 234953562 634644489 36054466#0 36054466#1 36054466#3 36054466#4 36054466#5 36054466#6 36054466#7 36054466#8 36054466#9 36054466#10"/>
    </vehicle>
    <vehicle id="moto41" type="moto_motorcycle" depart="390.72" departLane="best" departSpeed="max">
        <route edges="573865733#1 436291013 436291011 436291010 436291062 436291064#1 642361032"/>
    </vehicle>
    <vehicle id="moto42" type="moto_motorcycle" depart="400.25" departLane="best">
        <route edges="436291010 436291062 436291064#1 642337372 642337373 234953562 634644489 278328405#0 278328405#1"/>
    </vehicle>
    <vehicle id="moto43" type="moto_motorcycle" depart="409.78" departLane="best">
        <route edges="gneE1 -593766965 -5962129#4 -5962129#3 -5962129#2 419814433#2 -419814433#2 5962129#2 5962129#3 5962129#4 5962129#5 gneE0 593766961 436291018 436291020#0"/>
    </vehicle>
    <vehicle id="moto44" type="moto_motorcycle" depart="419.30" departLane="best">
        <route edges="-5955850#0 5962129#0 5962129#2 5962129#3 5962129#4 5962129#5 gneE0 593766961 436291018 641705063#0 641705063#1 641705063#2 641705063#3 -419814433#4"/>
    </vehicle>
    <vehicle id="moto45" type="moto_motorcycle" depart="428.83" departLane="best" departSpeed="max">
        <route edges="-5955850#2 -5955850#1 -5955850#0 5962129#0 419814433#2 -419814433#2 -5962129#1 5955850#0"/>
    </vehicle>
    <vehicle id="moto46" type="moto_motorcycle" depart="438.36" departLane="best">
        <route edges="641705064#0 436291031 436291016#0"/>
    </vehicle>
    <vehicle id="moto47" type="moto_motorcycle" depart="447.89" departLane="best" departSpeed="max">
        <route edges="-593766962#1 -593766960 gneE1 -593766965 -5962129#4 -5962129#3 -5962129#2 419814433#2 419814433#4"/>
    </vehicle>
    <vehicle id="moto48" type="moto_motorcycle" depart="457.42" departLane="best">
        <route edges="gneE1 -593766965 -5962129#4 -5962129#3 -5962129#2 419814433#2 419814433#4 641705065 634644489 278328405#0 278328405#1 436291029"/>
    </vehicle>
    <vehicle id="moto49" type="moto_motorcycle" depart="466.95" departLane="best">
        <route edges="89927838#3 36054466#0 36054466#1 36054466#3 36054466#4 641705063#2 641705063#3 641705064#0 436291031 436291062 436291064#1 642337372 641705146#0 641705146#1"/>
    </vehicle>
    <vehicle id="moto50" type="moto_motorcycle" depart="476.48" departLane="best">
        <route edges="-419814433#1 -419814433#0 419814433#0 419814433#1 5962129#2 5962129#3 5962129#4 5962129#5"/>
    </vehicle>
    <vehicle id="moto51" type="moto_motorcycle" depart="486.01" departLane="best">
        <route edges="5962129#4 5962129#5 gneE0 593766961 436291018 436291020#0 436291020#2 436291019 278328405#1 436291029"/>
    </vehicle>
    <vehicle id="moto52" type="moto_motorcycle" depart="495.54" departLane="best">
        <route edges="36054466#3 36054466#4 36054466#5 36054466#6 36054466#7 36054466#8 36054466#9 -5962129#3 -5962129#2 -5962129#1 5955850#0 5955850#1"/>
    </vehicle>
    <vehicle id="moto53" type="moto_motorcycle" depart="505.07" departLane="best" departSpeed="max">
        <route edges="-5955850#2 -5955850#1 -5955850#0 436291016#4 436291016#9 436291016#10"/>
    </vehicle>
    <vehicle id="moto55" type="moto_motorcycle" depart="524.13" departLane="best" departSpeed="max">
        <route edges="642337374#0 642337374#1 642337373 234953562 634644489 36054466#0 36054466#1 36054466#3 36054466#4 36054466#5 36054466#6 36054466#7 36054466#8 36054466#9 36054466#10"/>
    </vehicle>
    <vehicle id="moto57" type="moto_motorcycle" depart="543.19" departLane="best" departSpeed="max">
        <route edges="89922370#0 89922370#5 641705063#0 641705063#1 641705063#2 641705063#3 641705064#0 436291031 436291062 436291064#1 642337372"/>
    </vehicle>
    <vehicle id="moto58" type="moto_motorcycle" depart="552.72" departLane="best">
        <route edges="36054466#6 36054466#7 36054466#8 36054466#9 -5962129#3 -5962129#2 -5962129#1 5955850#0 5955850#1"/>
    </vehicle>
    <vehicle id="moto59" type="moto_motorcycle" depart="562.25" departLane="best">
        <route edges="593766961 436291018 641705063#0 641705063#1 641705063#2 641705063#3 641705064#0 436291031 436291062 436291064#1 642337372 642337373 234953562 -641705065"/>
    </vehicle>
    <vehicle id="moto60" type="moto_motorcycle" depart="571.78" departLane="best">
        <route edges="641705063#1 641705063#2 641705063#3 641705065 634644489 278328405#0 278328405#1 436291029"/>
    </vehicle>
    <vehicle id="moto61" type="moto_motorcycle" depart="581.31" departLane="best">
        <route edges="641705063#2 641705063#3 641705065 634644489 278328405#0 278328405#1 436291029"/>
    </vehicle>
    <vehicle id="moto62" type="moto_motorcycle" depart="590.84" departLane="best">
        <route edges="-419814433#1 -419814433#0 419814433#0 419814433#1 5962129#2 5962129#3 5962129#4 5962129#5 gneE0 593766961 436291018 641705063#0 641705063#1 36054466#5 36054466#6 36054466#7"/>
    </vehicle>
    <vehicle id="moto63" type="moto_motorcycle" depart="600.37" departLane="best">
        <route edges="-419814433#2 5962129#2 5962129#3 5962129#4 5962129#5 gneE0 593766961 436291018 436291020#0 436291020#2 436291019 642751754#0"/>
    </vehicle>
    <vehicle id="moto64" type="moto_motorcycle" depart="609.90" departLane="best" departSpeed="max">
        <route edges="642337374#0 642337374#1 642337373 234953562 -641705065 -419814433#4 419814433#4 641705065"/>
    </vehicle>
    <vehicle id="moto65" type="moto_motorcycle" depart="619.43" departLane="best">
        <route edges="36054466#7 36054466#8 36054466#9 5962129#4 5962129#5 gneE0 593766960 593766962#0 -593766962#1 -593766960"/>
    </vehicle>
    <vehicle id="moto66" type="moto_motorcycle" depart="628.96" departLane="best" departSpeed="max">
        <route edges="642337374#0 642337374#1 642337373 234953562 634644489 278328405#0 642751754#0 642751754#1"/>
    </vehicle>
    <vehicle id="moto67" type="moto_motorcycle" depart="638.49" departLane="best">
        <route edges="-5955850#0 5962129#0 5962129#2 5962129#3 5962129#4 5962129#5 gneE0 593766961 436291018"/>
    </vehicle>
    <vehicle id="moto68" type="moto_motorcycle" depart="648.02" departLane="best" departSpeed="max">
        <route edges="-593766962#1 -593766960 gneE1 -593766965 -5962129#4 -5962129#3 -5962129#2 -5962129#1 5955850#0 6024091#2 6024091#3 6024091#5"/>
    </vehicle>
    <vehicle id="moto69" type="moto_motorcycle" depart="657.55" departLane="best">
        <route edges="641705063#1 36054466#5 36054466#6 36054466#7 36054466#8 36054466#9 -5962129#3"/>
    </vehicle>
    <vehicle id="moto70" type="moto_motorcycle" depart="667.08" departLane="best">
        <route edges="436291018 641705063#0 641705063#1 641705063#2 641705063#3 641705064#0 436291031"/>
    </vehicle>
    <vehicle id="moto71" type="moto_motorcycle" depart="676.61" departLane="best">
        <route edges="36054466#3 36054466#4 641705063#2 641705063#3 641705064#0 436291031 436291062 436291064#1 642337372"/>
    </vehicle>
    <vehicle id="moto72" type="moto_motorcycle" depart="686.13" departLane="best">
        <route edges="436291013 234953562 634644489 278328405#0"/>
    </vehicle>
    <vehicle id="moto73" type="moto_motorcycle" depart="695.66" departLane="best">
        <route edges="436291031 436291016#0 5955850#0 6024091#2"/>
    </vehicle>
    <vehicle id="moto74" type="moto_motorcycle" depart="705.19" departLane="best">
        <route edges="234953562 634644489 36054466#0 36054466#1 36054466#3 36054466#4 36054466#5 36054466#6"/>
    </vehicle>
    <vehicle id="moto75" type="moto_motorcycle" depart="714.72" departLane="best">
        <route edges="gneE1 -593766965 -5962129#4 -5962129#3 -5962129#2 -5962129#1 5955850#0 5955850#1 5955850#2"/>
    </vehicle>
    <vehicle id="moto76" type="moto_motorcycle" depart="724.25" departLane="best">
        <route edges="436291016#0 5962129#0 5962129#2 5962129#3 5962129#4 5962129#5 gneE0 593766961 436291018 436291020#0 436291020#2"/>
    </vehicle>
    <vehicle id="moto77" type="moto_motorcycle" depart="733.78" departLane="best" departSpeed="max">
        <route edges="-5955850#2 -5955850#1 -5955850#0 5962129#0 5962129#2 5962129#3 5962129#4 5962129#5 gneE0 593766961 436291018 436291020#0 436291020#2 436291019 278328405#1"/>
    </vehicle>
    <vehicle id="moto78" type="moto_motorcycle" depart="743.31" departLane="best" departSpeed="max">
        <route edges="419814433#0 419814433#1 5962129#2 5962129#3 5962129#4 5962129#5 gneE0 593766960"/>
    </vehicle>
    <vehicle id="moto79" type="moto_motorcycle" depart="752.84" departLane="best">
        <route edges="278328405#1"/>
    </vehicle>
    <vehicle id="moto80" type="moto_motorcycle" depart="762.37" departLane="best">
        <route edges="-593766965 -5962129#4 -5962129#3 -5962129#2 -5962129#1 5955850#0"/>
    </vehicle>
    <vehicle id="moto82" type="moto_motorcycle" depart="781.43" departLane="best">
        <route edges="642337373 436291011 436291010 436291016#0 5962129#0 5962129#2 5962129#3 5962129#4 5962129#5 gneE0 593766960 593766962#0 -593766962#1 -593766960 gneE1 -593766965"/>
    </vehicle>
    <vehicle id="moto83" type="moto_motorcycle" depart="790.96" departLane="best">
        <route edges="36054466#0 36054466#1 36054466#3 36054466#4 36054466#5 36054466#6 36054466#7 36054466#8 36054466#9 -5962129#3 -5962129#2 -5962129#1 5955850#0 5955850#1 5955850#2"/>
    </vehicle>
    <vehicle id="moto85" type="moto_motorcycle" depart="810.02" departLane="best">
        <route edges="89922370#5 641705063#0 641705063#1 641705063#2 641705063#3 641705064#0 436291031 436291062 436291064#1"/>
    </vehicle>
    <vehicle id="moto86" type="moto_motorcycle" depart="819.55" departLane="best">
        <route edges="436291018 641705063#0 641705063#1"/>
    </vehicle>
    <vehicle id="moto87" type="moto_motorcycle" depart="829.08" departLane="best">
        <route edges="641705065 634644489 -89927838#3"/>
    </vehicle>
    <vehicle id="moto88" type="moto_motorcycle" depart="838.61" departLane="best">
        <route edges="-5955850#1 -5955850#0 5962129#0 419814433#2 419814433#4 641705064#0 436291031 436291016#0"/>
    </vehicle>
    <vehicle id="moto89" type="moto_motorcycle" depart="848.14" departLane="best">
        <route edges="436291013 436291011 436291010 436291016#0 436291016#4 436291016#9"/>
    </vehicle>
    <vehicle id="moto90" type="moto_motorcycle" depart="857.67" departLane="best">
        <route edges="6024091#5 642337372 642337373 436291011 436291010 436291016#0 5962129#0"/>
    </vehicle>
    <vehicle id="moto92" type="moto_motorcycle" depart="876.73" departLane="best">
        <route edges="436291010 436291062 436291064#1 642337372 642337373 234953562 634644489 36054466#0 36054466#1 36054466#3 36054466#4 36054466#5 36054466#6 36054466#7 36054466#8"/>
    </vehicle>
    <vehicle id="moto93" type="moto_motorcycle" depart="886.26" departLane="best" departSpeed="max">
        <route edges="642337374#0 642337374#1 642337373 234953562 634644489 36054466#0 36054466#1"/>
    </vehicle>
    <vehicle id="moto94" type="moto_motorcycle" depart="895.79" departLane="best">
        <route edges="-89927838#3 -89927838#0 89927838#0 89927838#3 36054466#0 36054466#1 36054466#3 36054466#4 641705063#2 641705063#3 641705064#0 436291031 436291016#0 436291016#4 436291016#9 436291016#10"/>
    </vehicle>
    <vehicle id="moto95" type="moto_motorcycle" depart="905.32" departLane="best">
        <route edges="436291013 234953562 634644489 36054466#0 36054466#1 36054466#3"/>
    </vehicle>
    <vehicle id="moto96" type="moto_motorcycle" depart="914.85" departLane="best">
        <route edges="36054466#1 36054466#3 36054466#4 641705063#2 641705063#3 641705065 634644489 278328405#0 642751754#0"/>
    </vehicle>
    <vehicle id="moto98" type="moto_motorcycle" depart="933.91" departLane="best">
        <route edges="436291062 436291064#1 642337372 642337373 234953562 -641705065 -419814433#4"/>
    </vehicle>
    <vehicle id="moto99" type="moto_motorcycle" depart="943.44" departLane="best">
        <route edges="gneE1 -593766965 -5962129#4 -5962129#3 -5962129#2 419814433#2 419814433#4 641705065"/>
    </vehicle>
    <vehicle id="moto100" type="moto_motorcycle" depart="952.97" departLane="best">
        <route edges="89927838#3 278328405#0 642751754#0"/>
    </vehicle>
    <vehicle id="moto101" type="moto_motorcycle" depart="962.49" departLane="best">
        <route edges="642337372 642337373 234953562 634644489 -89927838#3 -89927838#0"/>
    </vehicle>
    <vehicle id="moto103" type="moto_motorcycle" depart="981.55" departLane="best">
        <route edges="436291010 436291016#0 5962129#0 5962129#2 5962129#3 5962129#4 5962129#5 gneE0 593766960 593766962#0 -593766962#1 -593766960"/>
    </vehicle>
    <vehicle id="moto104" type="moto_motorcycle" depart="991.08" departLane="best">
        <route edges="419814433#2 -419814433#2 5962129#2 5962129#3 5962129#4 5962129#5 gneE0"/>
    </vehicle>
    <vehicle id="moto105" type="moto_motorcycle" depart="1000.61" departLane="best">
        <route edges="36054466#3 36054466#4 36054466#5 36054466#6 36054466#7 36054466#8 36054466#9 5962129#4 5962129#5 gneE0 593766961 436291018 641705063#0"/>
    </vehicle>
    <vehicle id="moto107" type="moto_motorcycle" depart="1019.67" departLane="best" departSpeed="max">
        <route edges="89927838#0 89927838#3 36054466#0 36054466#1 36054466#3 36054466#4 36054466#5 36054466#6 36054466#7 36054466#8 36054466#9 5962129#4 5962129#5 gneE0 593766960 593766962#0 -593766962#1 -593766960 gneE1"/>
    </vehicle>
    <vehicle id="moto108" type="moto_motorcycle" depart="1029.20" departLane="best">
        <route edges="436291062 436291064#1 642337372 642337373 436291011 436291010 436291016#0 5962129#0 5962129#2 5962129#3 5962129#4 5962129#5"/>
    </vehicle>
    <vehicle id="moto109" type="moto_motorcycle" depart="1038.73" departLane="best">
        <route edges="-5962129#3 -5962129#2 419814433#2 419814433#4 641705065 634644489 36054466#0 36054466#1 36054466#3 36054466#4 36054466#5"/>
    </vehicle>
    <vehicle id="moto110" type="moto_motorcycle" depart="1048.26" departLane="best">
        <route edges="89927838#3 36054466#0 36054466#1 36054466#3 36054466#4 641705063#2 641705063#3 641705064#0 436291031 436291062 436291064#1"/>
    </vehicle>
    <vehicle id="moto111" type="moto_motorcycle" depart="1057.79" departLane="best">
        <route edges="436291031 436291016#0 5955850#0 6024091#2 6024091#3"/>
    </vehicle>
    <vehicle id="moto112" type="moto_motorcycle" depart="1067.32" departLane="best" departSpeed="max">
        <route edges="-593766962#1 -593766960 593766961 436291018 641705063#0 641705063#1 36054466#5 36054466#6 36054466#7 36054466#8 36054466#9 5962129#4 5962129#5 gneE0 593766960"/>
    </vehicle>
    <vehicle id="moto115" type="moto_motorcycle" depart="1095.91" departLane="best">
        <route edges="-593766965 -5962129#4 -5962129#3 -5962129#2 419814433#2 419814433#4 641705065 634644489 -89927838#3"/>
    </vehicle>
    <vehicle id="moto116" type="moto_motorcycle" depart="1105.44" departLane="best">
        <route edges="593766960 593766962#0 -593766962#1 -593766960 593766961 436291018 641705063#0 641705063#1 641705063#2 641705063#3 641705064#0 436291031 436291016#0 5962129#0"/>
    </vehicle>
    <vehicle id="moto117" type="moto_motorcycle" depart="1114.97" departLane="best">
        <route edges="36054466#0 36054466#1 36054466#3 36054466#4 36054466#5 36054466#6 36054466#7 36054466#8 36054466#9 -5962129#3 -5962129#2"/>
    </vehicle>
    <vehicle id="moto118" type="moto_motorcycle" depart="1124.50" departLane="best">
        <route edges="642337374#1 642337373 234953562 634644489 36054466#0 36054466#1"/>
    </vehicle>
    <vehicle id="moto119" type="moto_motorcycle" depart="1134.03" departLane="best">
        <route edges="593766960 593766962#0"/>
    </vehicle>
    <vehicle id="moto120" type="moto_motorcycle" depart="1143.56" departLane="best">
        <route edges="436291013 436291011 436291010 436291016#0 5962129#0 5962129#2 5962129#3 5962129#4 5962129#5 gneE0 593766960"/>
    </vehicle>
    <vehicle id="moto121" type="moto_motorcycle" depart="1153.09" departLane="best" departSpeed="max">
        <route edges="436291021#0 593766961 436291018 436291020#0 436291020#2 436291019 642751754#0 642751754#1"/>
    </vehicle>
    <vehicle id="moto122" type="moto_motorcycle" depart="1162.62" departLane="best">
        <route edges="234953562 -641705065 -419814433#4 -419814433#2 5962129#2 5962129#3 5962129#4 5962129#5"/>
    </vehicle>
    <vehicle id="moto123" type="moto_motorcycle" depart="1172.15" departLane="best">
        <route edges="36054466#0 36054466#1 36054466#3 36054466#4 641705063#2 641705063#3 641705064#0 436291031 436291062 436291064#1 642337372 642337373 436291011 436291010"/>
    </vehicle>
    <vehicle id="moto124" type="moto_motorcycle" depart="1181.68" departLane="best">
        <route edges="5962129#3 5962129#4 5962129#5 gneE0 593766961 436291018 641705063#0 641705063#1 36054466#5"/>
    </vehicle>
    <vehicle id="moto125" type="moto_motorcycle" depart="1191.21" departLane="best">
        <route edges="36054466#8 36054466#9 -5962129#3 -5962129#2 -5962129#1 5955850#0 6024091#2 6024091#3 6024091#5"/>
    </vehicle>
    <vehicle id="moto126" type="moto_motorcycle" depart="1200.74" departLane="best">
        <route edges="-593766965 -5962129#4 -5962129#3 -5962129#2 -5962129#1 436291016#4"/>
    </vehicle>
    <vehicle id="moto127" type="moto_motorcycle" depart="1210.27" departLane="best">
        <route edges="gneE1"/>
    </vehicle>
    <vehicle id="moto128" type="moto_motorcycle" depart="1219.80" departLane="best">
        <route edges="-593766965 -5962129#4 -5962129#3 -5962129#2 419814433#2 419814433#4 641705065 634644489 278328405#0"/>
    </vehicle>
    <vehicle id="moto129" type="moto_motorcycle" depart="1229.33" departLane="best">
        <route edges="36054466#3 36054466#4 641705063#2 641705063#3 641705065 634644489 278328405#0 642751754#0 642751754#1"/>
    </vehicle>
    <vehicle id="moto130" type="moto_motorcycle" depart="1238.85" departLane="best" departSpeed="max">
        <route edges="642337374#0 642337374#1 642337373"/>
    </vehicle>
    <vehicle id="moto131" type="moto_motorcycle" depart="1248.38" departLane="best">
        <route edges="419814433#1 419814433#2 419814433#4 641705064#0 436291031 436291062 436291064#1 642337372 642337373 234953562 -641705065"/>
    </vehicle>
    <vehicle id="moto133" type="moto_motorcycle" depart="1267.44" departLane="best">
        <route edges="593766961 436291018 641705063#0 641705063#1 36054466#5 36054466#6 36054466#7 36054466#8 36054466#9 5962129#4 5962129#5 gneE0"/>
    </vehicle>
    <vehicle id="moto134" type="moto_motorcycle" depart="1276.97" departLane="best">
        <route edges="5962129#2 5962129#3 5962129#4 5962129#5 gneE0 593766961 436291018 641705063#0 641705063#1 641705063#2 641705063#3 -419814433#4 -419814433#2 -419814433#1 -419814433#0"/>
    </vehicle>
    <vehicle id="moto136" type="moto_motorcycle" depart="1296.03" departLane="best">
        <route edges="5962129#3 5962129#4 5962129#5 gneE0 593766961 436291018 436291020#0 436291020#2 436291019 642751754#0 642751754#1"/>
    </vehicle>
    <vehicle id="moto137" type="moto_motorcycle" depart="1305.56" departLane="best">
        <route edges="-5962129#1 5955850#0 6024091#2 6024091#3 6024091#5 642337372 642337373 234953562 634644489 36054466#0 36054466#1 36054466#3 36054466#4 36054466#5 36054466#6 36054466#7 36054466#8 36054466#9 -5962129#3 -5962129#2"/>
    </vehicle>
    <vehicle id="moto138" type="moto_motorcycle" depart="1315.09" departLane="best" departSpeed="max">
        <route edges="-5955850#2 -5955850#1 -5955850#0 5962129#0 419814433#2 419814433#4 641705064#0 436291031"/>
    </vehicle>
    <vehicle id="moto139" type="moto_motorcycle" depart="1324.62" departLane="best">
        <route edges="36054466#4 36054466#5 36054466#6 36054466#7 36054466#8 36054466#9 5962129#4 5962129#5 gneE0 593766960 593766962#0"/>
    </vehicle>
    <vehicle id="moto140" type="moto_motorcycle" depart="1334.15" departLane="best">
        <route edges="6024091#3 6024091#5 642337372 642337373 234953562"/>
    </vehicle>
    <vehicle id="moto144" type="moto_motorcycle" depart="1372.27" departLane="best">
        <route edges="436291013 234953562 634644489 36054466#0 36054466#1 36054466#3"/>
    </vehicle>
    <vehicle id="moto145" type="moto_motorcycle" depart="1381.80" departLane="best">
        <route edges="-419814433#1 -419814433#0 419814433#0 419814433#1 419814433#2 419814433#4 641705065 634644489"/>
    </vehicle>
    <vehicle id="moto147" type="moto_motorcycle" depart="1400.86" departLane="best">
        <route edges="634644489 36054466#0 36054466#1 36054466#3 36054466#4 641705063#2 641705063#3 641705064#0 436291031"/>
    </vehicle>
    <vehicle id="moto148" type="moto_motorcycle" depart="1410.39" departLane="best">
        <route edges="436291013 234953562 -641705065 -419814433#4 -419814433#2 -419814433#1 -419814433#0"/>
    </vehicle>
    <vehicle id="moto149" type="moto_motorcycle" depart="1419.92" departLane="best">
        <route edges="-593766965 -5962129#4 -5962129#3 -5962129#2 419814433#2 419814433#4 641705064#0 436291031 436291062 436291064#1 642337372 642337373"/>
    </vehicle>
    <vehicle id="moto152" type="moto_motorcycle" depart="1448.51" departLane="best">
        <route edges="-5962129#2 419814433#2 419814433#4 641705065 634644489 36054466#0 36054466#1 36054466#3 36054466#4 36054466#5 36054466#6 36054466#7 36054466#8 36054466#9 -5962129#3"/>
    </vehicle>
    <vehicle id="moto153" type="moto_motorcycle" depart="1458.04" departLane="best">
        <route edges="36054466#7 36054466#8 36054466#9 -5962129#3 -5962129#2 419814433#2 419814433#4 641705064#0 436291031 436291062 436291064#1 642361032"/>
    </vehicle>