<?xml version="1.0" encoding="UTF-8"?>

<!-- generated on Tue Jun  2 10:25:52 2020 by Eclipse SUMO duarouter Version 1.6.0
<configuration xmlns:xsi="http://www.w3.org/2001/XMLSchema-instance" xsi:noNamespaceSchemaLocation="http://sumo.dlr.de/xsd/duarouterConfiguration.xsd">

    <input>
        <net-file value="osm.net.xml"/>
        <route-files value="osm.motorcycle.trips.xml"/>
    </input>

    <output>
        <output-file value="osm.motorcycle.trips.xml.tmp"/>
        <write-trips value="true"/>
    </output>

    <time>
        <begin value="0"/>
        <end value="1800.0"/>
    </time>

    <report>
        <no-warnings value="true"/>
        <ignore-errors value="true"/>
        <no-step-log value="true"/>
    </report>

</configuration>
-->

<routes xmlns:xsi="http://www.w3.org/2001/XMLSchema-instance" xsi:noNamespaceSchemaLocation="http://sumo.dlr.de/xsd/routes_file.xsd">
    <vType id="moto_motorcycle" vClass="motorcycle"/>
    <trip id="moto1" type="moto_motorcycle" depart="9.53" departLane="best" from="36054466#4" to="278328405#1"/>
    <trip id="moto2" type="moto_motorcycle" depart="19.06" departLane="best" from="634644489" to="5962129#0"/>
    <trip id="moto4" type="moto_motorcycle" depart="38.12" departLane="best" from="436291013" to="-419814433#1"/>
    <trip id="moto6" type="moto_motorcycle" depart="57.18" departLane="best" from="-419814433#4" to="234953562"/>
    <trip id="moto7" type="moto_motorcycle" depart="66.71" departLane="best" from="5962129#0" to="436291029"/>
    <trip id="moto9" type="moto_motorcycle" depart="85.77" departLane="best" from="641705065" to="-419814433#0"/>
    <trip id="moto10" type="moto_motorcycle" depart="95.30" departLane="best" from="641705065" to="5962129#3"/>
    <trip id="moto11" type="moto_motorcycle" depart="104.83" departLane="best" departSpeed="max" from="419814433#0" to="-641705065"/>
    <trip id="moto12" type="moto_motorcycle" depart="114.36" departLane="best" departSpeed="max" from="89927838#0" to="36054466#8"/>
    <trip id="moto14" type="moto_motorcycle" depart="133.42" departLane="best" from="642337372" to="593766962#0"/>
    <trip id="moto15" type="moto_motorcycle" depart="142.94" departLane="best" from="641705065" to="6024091#2"/>
    <trip id="moto16" type="moto_motorcycle" depart="152.47" departLane="best" from="436291031" to="89927838#3"/>
    <trip id="moto17" type="moto_motorcycle" depart="162.00" departLane="best" from="419814433#2" to="436291031"/>
    <trip id="moto19" type="moto_motorcycle" depart="181.06" departLane="best" departSpeed="max" from="642337374#0" to="436291064#1"/>
    <trip id="moto20" type="moto_motorcycle" depart="190.59" departLane="best" from="6024091#2" to="-419814433#4"/>
    <trip id="moto22" type="moto_motorcycle" depart="209.65" departLane="best" from="-593766965" to="36054466#0"/>
    <trip id="moto23" type="moto_motorcycle" depart="219.18" departLane="best" from="-5955850#1" to="36054466#3"/>
    <trip id="moto25" type="moto_motorcycle" depart="238.24" departLane="best" from="419814433#1" to="278328405#0"/>
    <trip id="moto26" type="moto_motorcycle" depart="247.77" departLane="best" from="36054466#3" to="642751754#1"/>
    <trip id="moto27" type="moto_motorcycle" depart="257.30" departLane="best" from="5962129#0" to="593766962#0"/>
    <trip id="moto28" type="moto_motorcycle" depart="266.83" departLane="best" from="-5962129#4" to="6024091#2"/>
    <trip id="moto29" type="moto_motorcycle" depart="276.36" departLane="best" from="-5962129#4" to="419814433#4"/>
    <trip id="moto30" type="moto_motorcycle" depart="285.89" departLane="best" from="gneE1" to="5955850#1"/>
    <trip id="moto31" type="moto_motorcycle" depart="295.42" departLane="best" from="436291062" to="5962129#2"/>
    <trip id="moto32" type="moto_motorcycle" depart="304.95" departLane="best" from="642337372" to="641705063#0"/>
    <trip id="moto34" type="moto_motorcycle" depart="324.01" departLane="best" from="36054466#8" to="36054466#10"/>
    <trip id="moto35" type="moto_motorcycle" depart="333.54" departLane="best" from="278328405#0" to="642751754#1"/>
    <trip id="moto36" type="moto_motorcycle" depart="343.07" departLane="best" departSpeed="max" from="642337374#0" to="36054466#6"/>
    <trip id="moto37" type="moto_motorcycle" depart="352.60" departLane="best" from="5962129#2" to="436291010"/>
    <trip id="moto38" type="moto_motorcycle" depart="362.13" departLane="best" departSpeed="max" from="89922370#0" to="436291016#4"/>
    <trip id="moto39" type="moto_motorcycle" depart="371.66" departLane="best" from="36054466#3" to="36054466#1"/>
    <trip id="moto40" type="moto_motorcycle" depart="381.19" departLane="best" from="436291064#1" to="36054466#10"/>
    <trip id="moto41" type="moto_motorcycle" depart="390.72" departLane="best" departSpeed="max" from="573865733#1" to="642361032"/>
    <trip id="moto42" type="moto_motorcycle" depart="400.25" departLane="best" from="436291010" to="278328405#1"/>
    <trip id="moto43" type="moto_motorcycle" depart="409.78" departLane="best" from="gneE1" to="436291020#0"/>
    <trip id="moto44" type="moto_motorcycle" depart="419.30" departLane="best" from="-5955850#0" to="-419814433#4"/>
    <trip id="moto45" type="moto_motorcycle" depart="428.83" departLane="best" departSpeed="max" from="-5955850#2" to="5955850#0"/>
    <trip id="moto46" type="moto_motorcycle" depart="438.36" departLane="best" from="641705064#0" to="436291016#0"/>
    <trip id="moto47" type="moto_motorcycle" depart="447.89" departLane="best" departSpeed="max" from="-593766962#1" to="419814433#4"/>
    <trip id="moto48" type="moto_motorcycle" depart="457.42" departLane="best" from="gneE1" to="436291029"/>
    <trip id="moto49" type="moto_motorcycle" depart="466.95" departLane="best" from="89927838#3" to="641705146#1"/>
    <trip id="moto50" type="moto_motorcycle" depart="476.48" departLane="best" from="-419814433#1" to="5962129#5"/>
    <trip id="moto51" type="moto_motorcycle" depart="486.01" departLane="best" from="5962129#4" to="436291029"/>
    <trip id="moto52" type="moto_motorcycle" depart="495.54" departLane="best" from="36054466#3" to="5955850#1"/>
    <trip id="moto53" type="moto_motorcycle" depart="505.07" departLane="best" departSpeed="max" from="-5955850#2" to="436291016#10"/>
    <trip id="moto55" type="moto_motorcycle" depart="524.13" departLane="best" departSpeed="max" from="642337374#0" to="36054466#10"/>
    <trip id="moto57" type="moto_motorcycle" depart="543.19" departLane="best" departSpeed="max" from="89922370#0" to="642337372"/>
    <trip id="moto58" type="moto_motorcycle" depart="552.72" departLane="best" from="36054466#6" to="5955850#1"/>
    <trip id="moto59" type="moto_motorcycle" depart="562.25" departLane="best" from="593766961" to="-641705065"/>
    <trip id="moto60" type="moto_motorcycle" depart="571.78" departLane="best" from="641705063#1" to="436291029"/>
    <trip id="moto61" type="moto_motorcycle" depart="581.31" departLane="best" from="641705063#2" to="436291029"/>
    <trip id="moto62" type="moto_motorcycle" depart="590.84" departLane="best" from="-419814433#1" to="36054466#7"/>
    <trip id="moto63" type="moto_motorcycle" depart="600.37" departLane="best" from="-419814433#2" to="642751754#0"/>
    <trip id="moto64" type="moto_motorcycle" depart="609.90" departLane="best" departSpeed="max" from="642337374#0" to="641705065"/>
    <trip id="moto65" type="moto_motorcycle" depart="619.43" departLane="best" from="36054466#7" to="-593766960"/>
    <trip id="moto66" type="moto_motorcycle" depart="628.96" departLane="best" departSpeed="max" from="642337374#0" to="642751754#1"/>
    <trip id="moto67" type="moto_motorcycle" depart="638.49" departLane="best" from="-5955850#0" to="436291018"/>
    <trip id="moto68" type="moto_motorcycle" depart="648.02" departLane="best" departSpeed="max" from="-593766962#1" to="6024091#5"/>
    <trip id="moto69" type="moto_motorcycle" depart="657.55" departLane="best" from="641705063#1" to="-5962129#3"/>
    <trip id="moto70" type="moto_motorcycle" depart="667.08" departLane="best" from="436291018" to="436291031"/>
    <trip id="moto71" type="moto_motorcycle" depart="676.61" departLane="best" from="36054466#3" to="642337372"/>
    <trip id="moto72" type="moto_motorcycle" depart="686.13" departLane="best" from="436291013" to="278328405#0"/>
    <trip id="moto73" type="moto_motorcycle" depart="695.66" departLane="best" from="436291031" to="6024091#2"/>
    <trip id="moto74" type="moto_motorcycle" depart="705.19" departLane="best" from="234953562" to="36054466#6"/>
    <trip id="moto75" type="moto_motorcycle" depart="714.72" departLane="best" from="gneE1" to="5955850#2"/>
    <trip id="moto76" type="moto_motorcycle" depart="724.25" departLane="best" from="436291016#0" to="436291020#2"/>
    <trip id="moto77" type="moto_motorcycle" depart="733.78" departLane="best" departSpeed="max" from="-5955850#2" to="278328405#1"/>
    <trip id="moto78" type="moto_motorcycle" depart="743.31" departLane="best" departSpeed="max" from="419814433#0" to="593766960"/>
    <trip id="moto79" type="moto_motorcycle" depart="752.84" departLane="best" from="278328405#1" to="278328405#1"/>
    <trip id="moto80" type="moto_motorcycle" depart="762.37" departLane="best" from="-593766965" to="5955850#0"/>
    <trip id="moto82" type="moto_motorcycle" depart="781.43" departLane="best" from="642337373" to="-593766965"/>
    <trip id="moto83" type="moto_motorcycle" depart="790.96" departLane="best" from="36054466#0" to="5955850#2"/>
    <trip id="moto85" type="moto_motorcycle" depart="810.02" departLane="best" from="89922370#5" to="436291064#1"/>
    <trip id="moto86" type="moto_motorcycle" depart="819.55" departLane="best" from="436291018" to="641705063#1"/>
    <trip id="moto87" type="moto_motorcycle" depart="829.08" departLane="best" from="641705065" to="-89927838#3"/>
    <trip id="moto88" type="moto_motorcycle" depart="838.61" departLane="best" from="-5955850#1" to="436291016#0"/>
    <trip id="moto89" type="moto_motorcycle" depart="848.14" departLane="best" from="436291013" to="436291016#9"/>
    <trip id="moto90" type="moto_motorcycle" depart="857.67" departLane="best" from="6024091#5" to="5962129#0"/>
    <trip id="moto92" type="moto_motorcycle" depart="876.73" departLane="best" from="436291010" to="36054466#8"/>
    <trip id="moto93" type="moto_motorcycle" depart="886.26" departLane="best" departSpeed="max" from="642337374#0" to="36054466#1"/>
    <trip id="moto94" type="moto_motorcycle" depart="895.79" departLane="best" from="-89927838#3" to="436291016#10"/>
    <trip id="moto95" type="moto_motorcycle" depart="905.32" departLane="best" from="436291013" to="36054466#3"/>
    <trip id="moto96" type="moto_motorcycle" depart="914.85" departLane="best" from="36054466#1" to="642751754#0"/>
    <trip id="moto98" type="moto_motorcycle" depart="933.91" departLane="best" from="436291062" to="-419814433#4"/>
    <trip id="moto99" type="moto_motorcycle" depart="943.44" departLane="best" from="gneE1" to="641705065"/>
    <trip id="moto100" type="moto_motorcycle" depart="952.97" departLane="best" from="89927838#3" to="642751754#0"/>
    <trip id="moto101" type="moto_motorcycle" depart="962.49" departLane="best" from="642337372" to="-89927838#0"/>
    <trip id="moto103" type="moto_motorcycle" depart="981.55" departLane="best" from="436291010" to="-593766960"/>
    <trip id="moto104" type="moto_motorcycle" depart="991.08" departLane="best" from="419814433#2" to="gneE0"/>
    <trip id="moto105" type="moto_motorcycle" depart="1000.61" departLane="best" from="36054466#3" to="641705063#0"/>
    <trip id="moto107" type="moto_motorcycle" depart="1019.67" departLane="best" departSpeed="max" from="89927838#0" to="gneE1"/>
    <trip id="moto108" type="moto_motorcycle" depart="1029.20" departLane="best" from="436291062" to="5962129#5"/>
    <trip id="moto109" type="moto_motorcycle" depart="1038.73" departLane="best" from="-5962129#3" to="36054466#5"/>
    <trip id="moto110" type="moto_motorcycle" depart="1048.26" departLane="best" from="89927838#3" to="436291064#1"/>
    <trip id="moto111" type="moto_motorcycle" depart="1057.79" departLane="best" from="436291031" to="6024091#3"/>
    <trip id="moto112" type="moto_motorcycle" depart="1067.32" departLane="best" departSpeed="max" from="-593766962#1" to="593766960"/>
    <trip id="moto115" type="moto_motorcycle" depart="1095.91" departLane="best" from="-593766965" to="-89927838#3"/>
    <trip id="moto116" type="moto_motorcycle" depart="1105.44" departLane="best" from="593766960" to="5962129#0"/>
    <trip id="moto117" type="moto_motorcycle" depart="1114.97" departLane="best" from="36054466#0" to="-5962129#2"/>
    <trip id="moto118" type="moto_motorcycle" depart="1124.50" departLane="best" from="642337374#1" to="36054466#1"/>
    <trip id="moto119" type="moto_motorcycle" depart="1134.03" departLane="best" from="593766960" to="593766962#0"/>
    <trip id="moto120" type="moto_motorcycle" depart="1143.56" departLane="best" from="436291013" to="593766960"/>
    <trip id="moto121" type="moto_motorcycle" depart="1153.09" departLane="best" departSpeed="max" from="436291021#0" to="642751754#1"/>
    <trip id="moto122" type="moto_motorcycle" depart="1162.62" departLane="best" from="234953562" to="5962129#5"/>
    <trip id="moto123" type="moto_motorcycle" depart="1172.15" departLane="best" from="36054466#0" to="436291010"/>
    <trip id="moto124" type="moto_motorcycle" depart="1181.68" departLane="best" from="5962129#3" to="36054466#5"/>
    <trip id="moto125" type="moto_motorcycle" depart="1191.21" departLane="best" from="36054466#8" to="6024091#5"/>
    <trip id="moto126" type="moto_motorcycle" depart="1200.74" departLane="best" from="-593766965" to="436291016#4"/>
    <trip id="moto127" type="moto_motorcycle" depart="1210.27" departLane="best" from="gneE1" to="gneE1"/>
    <trip id="moto128" type="moto_motorcycle" depart="1219.80" departLane="best" from="-593766965" to="278328405#0"/>
    <trip id="moto129" type="moto_motorcycle" depart="1229.33" departLane="best" from="36054466#3" to="642751754#1"/>
    <trip id="moto130" type="moto_motorcycle" depart="1238.85" departLane="best" departSpeed="max" from="642337374#0" to="642337373"/>
    <trip id="moto131" type="moto_motorcycle" depart="1248.38" departLane="best" from="419814433#1" to="-641705065"/>
    <trip id="moto133" type="moto_motorcycle" depart="1267.44" departLane="best" from="593766961" to="gneE0"/>
    <trip id="moto134" type="moto_motorcycle" depart="1276.97" departLane="best" from="5962129#2" to="-419814433#0"/>
    <trip id="moto136" type="moto_motorcycle" depart="1296.03" departLane="best" from="5962129#3" to="642751754#1"/>
    <trip id="moto137" type="moto_motorcycle" depart="1305.56" departLane="best" from="-5962129#1" to="-5962129#2"/>
    <trip id="moto138" type="moto_motorcycle" depart="1315.09" departLane="best" departSpeed="max" from="-5955850#2" to="436291031"/>
    <trip id="moto139" type="moto_motorcycle" depart="1324.62" departLane="best" from="36054466#4" to="593766962#0"/>
    <trip id="moto140" type="moto_motorcycle" depart="1334.15" departLane="best" from="6024091#3" to="234953562"/>
    <trip id="moto144" type="moto_motorcycle" depart="1372.27" departLane="best" from="436291013" to="36054466#3"/>
    <trip id="moto145" type="moto_motorcycle" depart="1381.80" departLane="best" from="-419814433#1" to="634644489"/>
    <trip id="moto147" type="moto_motorcycle" depart="1400.86" departLane="best" from="634644489" to="436291031"/>
    <trip id="moto148" type="moto_motorcycle" depart="1410.39" departLane="best" from="436291013" to="-419814433#0"/>
    <trip id="moto149" type="moto_motorcycle" depart="1419.92" departLane="best" from="-593766965" to="642337373"/>
    <trip id="moto152" type="moto_motorcycle" depart="1448.51" departLane="best" from="-5962129#2" to="-5962129#3"/>
    <trip id="moto153" type="moto_motorcycle" depart="1458.04" departLane="best" from="36054466#7" to="642361032"/>
    <trip id="moto154" type="moto_motorcycle" depart="1467.57" departLane="best" from="641705064#0" to="641705146#1"/>
    <trip id="moto156" type="moto_motorcycle" depart="1486.63" departLane="best" from="36054466#1" to="-5962129#1"/>
    <trip id="moto157" type="moto_motorcycle" depart="1496.16" departLane="best" from="641705063#3" to="642337373"/>
    <trip id="moto158" type="moto_motorcycle" depart="1505.69" departLane="best" from="436291010" to="593766962#0"/>
    <trip id="moto159" type="moto_motorcycle" depart="1515.21" departLane="best" from="-5962129#3" to="642751754#0"/>
    <trip id="moto160" type="moto_motorcycle" depart="1524.74" departLane="best" departSpeed="max" from="642337374#0" to="89927838#3"/>
    <trip id="moto161" type="moto_motorcycle" depart="1534.27" departLane="best" from="641705065" to="642337373"/>
    <trip id="moto162" type="moto_motorcycle" depart="1543.80" departLane="best" from="-419814433#4" to="6024091#2"/>
    <trip id="moto163" type="moto_motorcycle" depart="1553.33" departLane="best" from="36054466#9" to="642751754#0"/>
    <trip id="moto164" type="moto_motorcycle" depart="1562.86" departLane="best" from="641705064#0" to="642337372"/>
    <trip id="moto165" type="moto_motorcycle" depart="1572.39" departLane="best" from="641705065" to="36054466#10"/>
    <trip id="moto166" type="moto_motorcycle" depart="1581.92" departLane="best" from="641705063#3" to="-5962129#1"/>
    <trip id="moto167" type="moto_motorcycle" depart="1591.45" departLane="best" departSpeed="max" from="642337374#0" to="641705146#1"/>
    <trip id="moto170" type="moto_motorcycle" depart="1620.04" departLane="best" from="641705064#0" to="36054466#0"/>
    <trip id="moto171" type="moto_motorcycle" depart="1629.57" departLane="best" from="-419814433#4" to="-89927838#3"/>
    <trip id="moto172" type="moto_motorcycle" depart="1639.10" departLane="best" from="36054466#9" to="642337372"/>
    <trip id="moto173" type="moto_motorcycle" depart="1648.63" departLane="best" from="89927838#3" to="36054466#3"/>
    <trip id="moto174" type="moto_motorcycle" depart="1658.16" departLane="best" from="5962129#0" to="436291011"/>
    <trip id="moto175" type="moto_motorcycle" depart="1667.69" departLane="best" from="gneE0" to="436291029"/>
    <trip id="moto176" type="moto_motorcycle" depart="1677.22" departLane="best" from="89922370#5" to="-5962129#2"/>
    <trip id="moto177" type="moto_motorcycle" depart="1686.75" departLane="best" from="89927838#3" to="-89927838#0"/>
    <trip id="moto178" type="moto_motorcycle" depart="1696.28" departLane="best" departSpeed="max" from="89927838#0" to="36054466#10"/>
    <trip id="moto179" type="moto_motorcycle" depart="1705.81" departLane="best" departSpeed="max" from="-5955850#2" to="436291016#10"/>
    <trip id="moto180" type="moto_motorcycle" depart="1715.34" departLane="best" from="6024091#5" to="36054466#6"/>
    <trip id="moto181" type="moto_motorcycle" depart="1724.87" departLane="best" from="593766961" to="436291020#2"/>
    <trip id="moto182" type="moto_motorcycle" depart="1734.40" departLane="best" from="419814433#4" to="436291064#1"/>
    <trip id="moto183" type="moto_motorcycle" depart="1743.93" departLane="best" from="36054466#1" to="5962129#4"/>
    <trip id="moto184" type="moto_motorcycle" depart="1753.46" departLane="best" from="-419814433#1" to="642751754#0"/>
    <trip id="moto185" type="moto_motorcycle" depart="1762.99" departLane="best" from="436291031" to="5962129#5"/>
    <trip id="moto186" type="moto_motorcycle" depart="1772.52" departLane="best" from="634644489" to="5962129#0"/>
    <trip id="moto187" type="moto_motorcycle" depart="1782.04" departLane="best" from="419814433#1" to="-593766965"/>
    <trip id="moto188" type="moto_motorcycle" depart="1791.57" departLane="best" from="5962129#3" to="36054466#8"/>
</routes>
