<?xml version="1.0" encoding="UTF-8"?>

<!-- generated on 06/08/20 13:08:32 by Eclipse SUMO duarouter Version 1.6.0
<configuration xmlns:xsi="http://www.w3.org/2001/XMLSchema-instance" xsi:noNamespaceSchemaLocation="http://sumo.dlr.de/xsd/duarouterConfiguration.xsd">

    <input>
        <net-file value="osm.net.xml"/>
        <route-files value="osm.passenger.trips.xml"/>
    </input>

    <output>
        <output-file value="osm.passenger.trips.xml.tmp"/>
        <write-trips value="true"/>
    </output>

    <time>
        <begin value="0"/>
        <end value="1800.0"/>
    </time>

    <report>
        <no-warnings value="true"/>
        <ignore-errors value="true"/>
        <no-step-log value="true"/>
    </report>

</configuration>
-->

<routes xmlns:xsi="http://www.w3.org/2001/XMLSchema-instance" xsi:noNamespaceSchemaLocation="http://sumo.dlr.de/xsd/routes_file.xsd">
    <vType id="veh_passenger" vClass="passenger"/>
    <trip id="veh0" type="veh_passenger" depart="0.00" departLane="best" departSpeed="max" from="419814433#0" to="36054466#3"/>
    <trip id="veh1" type="veh_passenger" depart="3.00" departLane="best" from="641705063#1" to="5955850#2"/>
    <trip id="veh2" type="veh_passenger" depart="6.00" departLane="best" departSpeed="max" from="89922370#0" to="-5962129#2"/>
    <trip id="veh4" type="veh_passenger" depart="12.00" departLane="best" from="5962129#0" to="436291029"/>
    <trip id="veh5" type="veh_passenger" depart="15.00" departLane="best" from="642337373" to="-419814433#0"/>
    <trip id="veh6" type="veh_passenger" depart="18.00" departLane="best" departSpeed="max" from="89927838#0" to="436291016#0"/>
    <trip id="veh7" type="veh_passenger" depart="21.00" departLane="best" departSpeed="max" from="-5955850#2" to="-5962129#4"/>
    <trip id="veh8" type="veh_passenger" depart="24.00" departLane="best" from="642337372" to="5962129#5"/>
    <trip id="veh9" type="veh_passenger" depart="27.00" departLane="best" from="436291064#1" to="642751754#1"/>
    <trip id="veh11" type="veh_passenger" depart="33.00" departLane="best" departSpeed="max" from="642337374#0" to="593766961"/>
    <trip id="veh12" type="veh_passenger" depart="36.00" departLane="best" from="-5955850#1" to="36054466#4"/>
    <trip id="veh13" type="veh_passenger" depart="39.00" departLane="best" departSpeed="max" from="-5955850#2" to="419814433#2"/>
    <trip id="veh14" type="veh_passenger" depart="42.00" departLane="best" departSpeed="max" from="419814433#0" to="642751754#1"/>
    <trip id="veh15" type="veh_passenger" depart="45.00" departLane="best" from="5962129#0" to="593766960"/>
    <trip id="veh16" type="veh_passenger" depart="48.00" departLane="best" from="234953562" to="436291016#10"/>
    <trip id="veh17" type="veh_passenger" depart="51.00" departLane="best" from="89927838#3" to="593766962#0"/>
    <trip id="veh18" type="veh_passenger" depart="54.00" departLane="best" departSpeed="max" from="573865733#1" to="5955850#2"/>
    <trip id="veh19" type="veh_passenger" depart="57.00" departLane="best" departSpeed="max" from="642337374#0" to="641705063#0"/>
    <trip id="veh20" type="veh_passenger" depart="60.00" departLane="best" departSpeed="max" from="573865733#1" to="36054466#9"/>
    <trip id="veh21" type="veh_passenger" depart="63.00" departLane="best" departSpeed="max" from="573865733#1" to="642361032"/>
    <trip id="veh22" type="veh_passenger" depart="66.00" departLane="best" departSpeed="max" from="-5955850#2" to="-419814433#4"/>
    <trip id="veh23" type="veh_passenger" depart="69.00" departLane="best" departSpeed="max" from="-5955850#2" to="593766962#0"/>
    <trip id="veh25" type="veh_passenger" depart="75.00" departLane="best" from="6024091#2" to="436291029"/>
    <trip id="veh26" type="veh_passenger" depart="78.00" departLane="best" departSpeed="max" from="419814433#0" to="593766962#0"/>
    <trip id="veh27" type="veh_passenger" depart="81.00" departLane="best" departSpeed="max" from="-5955850#2" to="436291018"/>
    <trip id="veh28" type="veh_passenger" depart="84.00" departLane="best" departSpeed="max" from="436291021#0" to="642751754#1"/>
    <trip id="veh29" type="veh_passenger" depart="87.00" departLane="best" from="642337374#1" to="36054466#9"/>
    <trip id="veh31" type="veh_passenger" depart="93.00" departLane="best" from="419814433#4" to="593766962#0"/>
    <trip id="veh32" type="veh_passenger" depart="96.00" departLane="best" from="641705064#0" to="436291029"/>
    <trip id="veh34" type="veh_passenger" depart="102.00" departLane="best" from="642337374#1" to="642751754#1"/>
    <trip id="veh35" type="veh_passenger" depart="105.00" departLane="best" departSpeed="max" from="-5955850#2" to="436291029"/>
    <trip id="veh36" type="veh_passenger" depart="108.00" departLane="best" from="-5955850#0" to="634644489"/>
    <trip id="veh37" type="veh_passenger" depart="111.00" departLane="best" departSpeed="max" from="436291021#0" to="436291029"/>
    <trip id="veh38" type="veh_passenger" depart="114.00" departLane="best" departSpeed="max" from="419814433#0" to="642361032"/>
    <trip id="veh40" type="veh_passenger" depart="120.00" departLane="best" from="-5955850#0" to="593766962#0"/>
    <trip id="veh41" type="veh_passenger" depart="123.00" departLane="best" from="36054466#6" to="642361032"/>
    <trip id="veh42" type="veh_passenger" depart="126.00" departLane="best" from="36054466#8" to="5955850#2"/>
    <trip id="veh43" type="veh_passenger" depart="129.00" departLane="best" departSpeed="max" from="89922370#0" to="436291031"/>
    <trip id="veh44" type="veh_passenger" depart="132.00" departLane="best" from="642337372" to="36054466#10"/>
    <trip id="veh45" type="veh_passenger" depart="135.00" departLane="best" from="641705063#0" to="5955850#2"/>
    <trip id="veh46" type="veh_passenger" depart="138.00" departLane="best" departSpeed="max" from="89927838#0" to="-5962129#4"/>
    <trip id="veh47" type="veh_passenger" depart="141.00" departLane="best" departSpeed="max" from="642337374#0" to="36054466#7"/>
    <trip id="veh48" type="veh_passenger" depart="144.00" departLane="best" departSpeed="max" from="573865733#1" to="-419814433#4"/>
    <trip id="veh49" type="veh_passenger" depart="147.00" departLane="best" from="gneE1" to="641705146#1"/>
    <trip id="veh50" type="veh_passenger" depart="150.00" departLane="best" departSpeed="max" from="642337374#0" to="278328405#0"/>
    <trip id="veh51" type="veh_passenger" depart="153.00" departLane="best" departSpeed="max" from="89927838#0" to="gneE0"/>
    <trip id="veh52" type="veh_passenger" depart="156.00" departLane="best" departSpeed="max" from="573865733#1" to="5962129#4"/>
    <trip id="veh53" type="veh_passenger" depart="159.00" departLane="best" departSpeed="max" from="-593766962#1" to="436291062"/>
    <trip id="veh54" type="veh_passenger" depart="162.00" departLane="best" from="-5955850#1" to="36054466#1"/>
    <trip id="veh55" type="veh_passenger" depart="165.00" departLane="best" departSpeed="max" from="573865733#1" to="5955850#2"/>
    <trip id="veh56" type="veh_passenger" depart="168.00" departLane="best" from="36054466#7" to="-89927838#0"/>
    <trip id="veh57" type="veh_passenger" depart="171.00" departLane="best" departSpeed="max" from="573865733#1" to="593766961"/>
    <trip id="veh59" type="veh_passenger" depart="177.00" departLane="best" from="436291062" to="642751754#1"/>
    <trip id="veh60" type="veh_passenger" depart="180.00" departLane="best" from="-5955850#0" to="436291019"/>
    <trip id="veh61" type="veh_passenger" depart="183.00" departLane="best" departSpeed="max" from="419814433#0" to="642751754#1"/>
    <trip id="veh64" type="veh_passenger" depart="192.00" departLane="best" departSpeed="max" from="642337374#0" to="5962129#0"/>
    <trip id="veh65" type="veh_passenger" depart="195.00" departLane="best" from="5962129#3" to="642751754#1"/>
    <trip id="veh66" type="veh_passenger" depart="198.00" departLane="best" from="-5962129#3" to="-89927838#0"/>
    <trip id="veh67" type="veh_passenger" depart="201.00" departLane="best" departSpeed="max" from="-5955850#2" to="436291029"/>
    <trip id="veh68" type="veh_passenger" depart="204.00" departLane="best" departSpeed="max" from="419814433#0" to="436291064#1"/>
    <trip id="veh69" type="veh_passenger" depart="207.00" departLane="best" from="634644489" to="36054466#10"/>
    <trip id="veh70" type="veh_passenger" depart="210.00" departLane="best" departSpeed="max" from="436291021#0" to="642361032"/>
    <trip id="veh71" type="veh_passenger" depart="213.00" departLane="best" departSpeed="max" from="642337374#0" to="-5962129#3"/>
    <trip id="veh73" type="veh_passenger" depart="219.00" departLane="best" departSpeed="max" from="89922370#0" to="36054466#10"/>
    <trip id="veh74" type="veh_passenger" depart="222.00" departLane="best" departSpeed="max" from="642337374#0" to="642751754#1"/>
    <trip id="veh75" type="veh_passenger" depart="225.00" departLane="best" from="-593766960" to="6024091#2"/>
    <trip id="veh76" type="veh_passenger" depart="228.00" departLane="best" departSpeed="max" from="436291021#0" to="436291011"/>
    <trip id="veh77" type="veh_passenger" depart="231.00" departLane="best" departSpeed="max" from="89922370#0" to="-89927838#0"/>
    <trip id="veh78" type="veh_passenger" depart="234.00" departLane="best" departSpeed="max" from="89927838#0" to="36054466#9"/>
    <trip id="veh79" type="veh_passenger" depart="237.00" departLane="best" departSpeed="max" from="-5955850#2" to="436291018"/>
    <trip id="veh80" type="veh_passenger" depart="240.00" departLane="best" departSpeed="max" from="573865733#1" to="436291029"/>
    <trip id="veh81" type="veh_passenger" depart="243.00" departLane="best" from="-419814433#1" to="642751754#0"/>
    <trip id="veh82" type="veh_passenger" depart="246.00" departLane="best" from="641705063#2" to="5955850#2"/>
    <trip id="veh83" type="veh_passenger" depart="249.00" departLane="best" departSpeed="max" from="89922370#0" to="5955850#2"/>
    <trip id="veh84" type="veh_passenger" depart="252.00" departLane="best" from="419814433#4" to="436291029"/>
    <trip id="veh86" type="veh_passenger" depart="258.00" departLane="best" departSpeed="max" from="436291021#0" to="642361032"/>
    <trip id="veh88" type="veh_passenger" depart="264.00" departLane="best" departSpeed="max" from="-5955850#2" to="436291029"/>
    <trip id="veh89" type="veh_passenger" depart="267.00" departLane="best" from="36054466#1" to="-419814433#0"/>
    <trip id="veh90" type="veh_passenger" depart="270.00" departLane="best" from="36054466#0" to="5955850#2"/>
    <trip id="veh91" type="veh_passenger" depart="273.00" departLane="best" from="36054466#9" to="642337372"/>
    <trip id="veh92" type="veh_passenger" depart="276.00" departLane="best" departSpeed="max" from="436291021#0" to="641705063#3"/>
    <trip id="veh93" type="veh_passenger" depart="279.00" departLane="best" departSpeed="max" from="642337374#0" to="436291029"/>
    <trip id="veh94" type="veh_passenger" depart="282.00" departLane="best" departSpeed="max" from="89922370#0" to="6024091#3"/>
    <trip id="veh95" type="veh_passenger" depart="285.00" departLane="best" from="641705064#0" to="436291029"/>
    <trip id="veh97" type="veh_passenger" depart="291.00" departLane="best" from="436291064#1" to="-89927838#0"/>
    <trip id="veh98" type="veh_passenger" depart="294.00" departLane="best" from="36054466#7" to="5955850#2"/>
    <trip id="veh101" type="veh_passenger" depart="303.00" departLane="best" departSpeed="max" from="573865733#1" to="5955850#2"/>
    <trip id="veh102" type="veh_passenger" depart="306.00" departLane="best" departSpeed="max" from="642337374#0" to="634644489"/>
    <trip id="veh103" type="veh_passenger" depart="309.00" departLane="best" departSpeed="max" from="642337374#0" to="642751754#1"/>
    <trip id="veh106" type="veh_passenger" depart="318.00" departLane="best" from="436291013" to="5955850#2"/>
    <trip id="veh107" type="veh_passenger" depart="321.00" departLane="best" departSpeed="max" from="436291021#0" to="-89927838#0"/>
    <trip id="veh108" type="veh_passenger" depart="324.00" departLane="best" departSpeed="max" from="-593766962#1" to="436291016#10"/>
    <trip id="veh109" type="veh_passenger" depart="327.00" departLane="best" from="-419814433#4" to="436291029"/>
    <trip id="veh110" type="veh_passenger" depart="330.00" departLane="best" from="89922370#5" to="36054466#10"/>
    <trip id="veh111" type="veh_passenger" depart="333.00" departLane="best" from="-5962129#2" to="5955850#2"/>
    <trip id="veh112" type="veh_passenger" depart="336.00" departLane="best" departSpeed="max" from="573865733#1" to="36054466#10"/>
    <trip id="veh113" type="veh_passenger" depart="339.00" departLane="best" from="6024091#5" to="634644489"/>
    <trip id="veh114" type="veh_passenger" depart="342.00" departLane="best" from="234953562" to="593766960"/>
    <trip id="veh115" type="veh_passenger" depart="345.00" departLane="best" departSpeed="max" from="642337374#0" to="642751754#1"/>
    <trip id="veh116" type="veh_passenger" depart="348.00" departLane="best" departSpeed="max" from="-5955850#2" to="-419814433#0"/>
    <trip id="veh117" type="veh_passenger" depart="351.00" departLane="best" departSpeed="max" from="89927838#0" to="436291016#10"/>
    <trip id="veh118" type="veh_passenger" depart="354.00" departLane="best" from="6024091#3" to="593766962#0"/>
    <trip id="veh119" type="veh_passenger" depart="357.00" departLane="best" departSpeed="max" from="-5955850#2" to="641705063#0"/>
    <trip id="veh122" type="veh_passenger" depart="366.00" departLane="best" departSpeed="max" from="-5955850#2" to="642751754#1"/>
    <trip id="veh123" type="veh_passenger" depart="369.00" departLane="best" from="6024091#5" to="436291018"/>
    <trip id="veh124" type="veh_passenger" depart="372.00" departLane="best" from="436291064#1" to="436291020#2"/>
    <trip id="veh126" type="veh_passenger" depart="378.00" departLane="best" departSpeed="max" from="419814433#0" to="642337372"/>
    <trip id="veh127" type="veh_passenger" depart="381.00" departLane="best" departSpeed="max" from="642337374#0" to="-5962129#2"/>
    <trip id="veh128" type="veh_passenger" depart="384.00" departLane="best" departSpeed="max" from="642337374#0" to="36054466#0"/>
    <trip id="veh129" type="veh_passenger" depart="387.00" departLane="best" from="-419814433#2" to="642751754#1"/>
    <trip id="veh130" type="veh_passenger" depart="390.00" departLane="best" departSpeed="max" from="-5955850#2" to="5962129#4"/>
    <trip id="veh131" type="veh_passenger" depart="393.00" departLane="best" departSpeed="max" from="436291021#0" to="6024091#5"/>
    <trip id="veh132" type="veh_passenger" depart="396.00" departLane="best" from="6024091#3" to="593766962#0"/>
    <trip id="veh133" type="veh_passenger" depart="399.00" departLane="best" departSpeed="max" from="-5955850#2" to="36054466#3"/>
    <trip id="veh134" type="veh_passenger" depart="402.00" departLane="best" departSpeed="max" from="573865733#1" to="436291020#0"/>
    <trip id="veh135" type="veh_passenger" depart="405.00" departLane="best" departSpeed="max" from="419814433#0" to="-89927838#0"/>
    <trip id="veh138" type="veh_passenger" depart="414.00" departLane="best" from="6024091#3" to="-89927838#0"/>
    <trip id="veh139" type="veh_passenger" depart="417.00" departLane="best" departSpeed="max" from="642337374#0" to="436291029"/>
    <trip id="veh140" type="veh_passenger" depart="420.00" departLane="best" departSpeed="max" from="642337374#0" to="436291016#10"/>
    <trip id="veh141" type="veh_passenger" depart="423.00" departLane="best" from="-5955850#0" to="593766962#0"/>
    <trip id="veh142" type="veh_passenger" depart="426.00" departLane="best" departSpeed="max" from="-593766962#1" to="234953562"/>
    <trip id="veh143" type="veh_passenger" depart="429.00" departLane="best" from="gneE0" to="-89927838#0"/>
    <trip id="veh145" type="veh_passenger" depart="435.00" departLane="best" from="6024091#5" to="436291019"/>
    <trip id="veh146" type="veh_passenger" depart="438.00" departLane="best" from="6024091#2" to="642751754#0"/>
    <trip id="veh148" type="veh_passenger" depart="444.00" departLane="best" from="5962129#3" to="642751754#1"/>
    <trip id="veh149" type="veh_passenger" depart="447.00" departLane="best" from="419814433#1" to="-89927838#0"/>
    <trip id="veh150" type="veh_passenger" depart="450.00" departLane="best" departSpeed="max" from="-593766962#1" to="436291016#9"/>
    <trip id="veh151" type="veh_passenger" depart="453.00" departLane="best" departSpeed="max" from="-5955850#2" to="642751754#1"/>
    <trip id="veh152" type="veh_passenger" depart="456.00" departLane="best" departSpeed="max" from="-593766962#1" to="6024091#5"/>
    <trip id="veh153" type="veh_passenger" depart="459.00" departLane="best" departSpeed="max" from="573865733#1" to="593766962#0"/>
    <trip id="veh154" type="veh_passenger" depart="462.00" departLane="best" from="436291011" to="5955850#2"/>
    <trip id="veh155" type="veh_passenger" depart="465.00" departLane="best" from="419814433#1" to="642751754#1"/>
    <trip id="veh156" type="veh_passenger" depart="468.00" departLane="best" from="642337373" to="436291029"/>
    <trip id="veh158" type="veh_passenger" depart="474.00" departLane="best" from="89927838#3" to="5955850#0"/>
    <trip id="veh161" type="veh_passenger" depart="483.00" departLane="best" from="-5962129#1" to="642751754#1"/>
    <trip id="veh162" type="veh_passenger" depart="486.00" departLane="best" departSpeed="max" from="573865733#1" to="36054466#5"/>
    <trip id="veh163" type="veh_passenger" depart="489.00" departLane="best" from="234953562" to="436291029"/>
    <trip id="veh164" type="veh_passenger" depart="492.00" departLane="best" departSpeed="max" from="573865733#1" to="-5962129#3"/>
    <trip id="veh165" type="veh_passenger" depart="495.00" departLane="best" from="89927838#3" to="642361032"/>
    <trip id="veh166" type="veh_passenger" depart="498.00" departLane="best" departSpeed="max" from="436291021#0" to="-89927838#0"/>
    <trip id="veh167" type="veh_passenger" depart="501.00" departLane="best" departSpeed="max" from="642337374#0" to="436291029"/>
    <trip id="veh168" type="veh_passenger" depart="504.00" departLane="best" from="634644489" to="436291029"/>
    <trip id="veh169" type="veh_passenger" depart="507.00" departLane="best" departSpeed="max" from="419814433#0" to="641705146#1"/>
    <trip id="veh170" type="veh_passenger" depart="510.00" departLane="best" departSpeed="max" from="89927838#0" to="36054466#6"/>
    <trip id="veh171" type="veh_passenger" depart="513.00" departLane="best" departSpeed="max" from="573865733#1" to="436291016#10"/>
    <trip id="veh172" type="veh_passenger" depart="516.00" departLane="best" departSpeed="max" from="573865733#1" to="gneE1"/>
    <trip id="veh173" type="veh_passenger" depart="519.00" departLane="best" departSpeed="max" from="436291021#0" to="234953562"/>
    <trip id="veh174" type="veh_passenger" depart="522.00" departLane="best" departSpeed="max" from="573865733#1" to="436291029"/>
    <trip id="veh176" type="veh_passenger" depart="528.00" departLane="best" from="36054466#0" to="5955850#2"/>
    <trip id="veh177" type="veh_passenger" depart="531.00" departLane="best" from="642337373" to="436291016#10"/>
    <trip id="veh178" type="veh_passenger" depart="534.00" departLane="best" from="642337374#1" to="436291018"/>
    <trip id="veh179" type="veh_passenger" depart="537.00" departLane="best" from="641705063#0" to="436291016#4"/>
    <trip id="veh180" type="veh_passenger" depart="540.00" departLane="best" departSpeed="max" from="436291021#0" to="642751754#1"/>
    <trip id="veh181" type="veh_passenger" depart="543.00" departLane="best" from="436291013" to="5955850#2"/>
    <trip id="veh182" type="veh_passenger" depart="546.00" departLane="best" from="642337374#1" to="-419814433#1"/>
    <trip id="veh183" type="veh_passenger" depart="549.00" departLane="best" departSpeed="max" from="-5955850#2" to="593766962#0"/>
    <trip id="veh184" type="veh_passenger" depart="552.00" departLane="best" from="642337374#1" to="436291018"/>
    <trip id="veh185" type="veh_passenger" depart="555.00" departLane="best" from="-641705065" to="436291029"/>
    <trip id="veh186" type="veh_passenger" depart="558.00" departLane="best" from="642337374#1" to="593766961"/>
    <trip id="veh187" type="veh_passenger" depart="561.00" departLane="best" from="36054466#8" to="642361032"/>
    <trip id="veh188" type="veh_passenger" depart="564.00" departLane="best" departSpeed="max" from="89922370#0" to="5955850#2"/>
    <trip id="veh189" type="veh_passenger" depart="567.00" departLane="best" departSpeed="max" from="419814433#0" to="642337372"/>
    <trip id="veh190" type="veh_passenger" depart="570.00" departLane="best" from="36054466#1" to="436291016#10"/>
    <trip id="veh191" type="veh_passenger" depart="573.00" departLane="best" departSpeed="max" from="89927838#0" to="5955850#0"/>
    <trip id="veh192" type="veh_passenger" depart="576.00" departLane="best" departSpeed="max" from="436291021#0" to="642361032"/>
    <trip id="veh193" type="veh_passenger" depart="579.00" departLane="best" departSpeed="max" from="573865733#1" to="436291016#10"/>
    <trip id="veh194" type="veh_passenger" depart="582.00" departLane="best" from="5962129#3" to="641705146#1"/>
    <trip id="veh195" type="veh_passenger" depart="585.00" departLane="best" from="593766961" to="642361032"/>
    <trip id="veh196" type="veh_passenger" depart="588.00" departLane="best" from="436291064#1" to="642751754#1"/>
    <trip id="veh197" type="veh_passenger" depart="591.00" departLane="best" departSpeed="max" from="642337374#0" to="36054466#8"/>
    <trip id="veh198" type="veh_passenger" depart="594.00" departLane="best" departSpeed="max" from="642337374#0" to="436291020#2"/>
    <trip id="veh199" type="veh_passenger" depart="597.00" departLane="best" from="-419814433#4" to="436291029"/>
    <trip id="veh200" type="veh_passenger" depart="600.00" departLane="best" departSpeed="max" from="436291021#0" to="5955850#2"/>
    <trip id="veh201" type="veh_passenger" depart="603.00" departLane="best" departSpeed="max" from="642337374#0" to="642751754#1"/>
    <trip id="veh202" type="veh_passenger" depart="606.00" departLane="best" departSpeed="max" from="-5955850#2" to="36054466#4"/>
    <trip id="veh203" type="veh_passenger" depart="609.00" departLane="best" from="-593766960" to="642361032"/>
    <trip id="veh204" type="veh_passenger" depart="612.00" departLane="best" departSpeed="max" from="573865733#1" to="642361032"/>
    <trip id="veh205" type="veh_passenger" depart="615.00" departLane="best" from="-5962129#4" to="642751754#1"/>
    <trip id="veh206" type="veh_passenger" depart="618.00" departLane="best" from="419814433#4" to="436291029"/>
    <trip id="veh207" type="veh_passenger" depart="621.00" departLane="best" from="89922370#5" to="436291016#4"/>
    <trip id="veh208" type="veh_passenger" depart="624.00" departLane="best" from="89922370#5" to="642337373"/>
    <trip id="veh209" type="veh_passenger" depart="627.00" departLane="best" departSpeed="max" from="642337374#0" to="436291019"/>
    <trip id="veh210" type="veh_passenger" depart="630.00" departLane="best" departSpeed="max" from="573865733#1" to="-419814433#0"/>
    <trip id="veh212" type="veh_passenger" depart="636.00" departLane="best" from="-5955850#0" to="634644489"/>
    <trip id="veh213" type="veh_passenger" depart="639.00" departLane="best" from="-641705065" to="642361032"/>
    <trip id="veh214" type="veh_passenger" depart="642.00" departLane="best" departSpeed="max" from="419814433#0" to="278328405#1"/>
    <trip id="veh216" type="veh_passenger" depart="648.00" departLane="best" departSpeed="max" from="-5955850#2" to="436291029"/>
    <trip id="veh217" type="veh_passenger" depart="651.00" departLane="best" departSpeed="max" from="89927838#0" to="-593766965"/>
    <trip id="veh218" type="veh_passenger" depart="654.00" departLane="best" from="6024091#2" to="436291029"/>
    <trip id="veh220" type="veh_passenger" depart="660.00" departLane="best" from="-5955850#1" to="593766960"/>
    <trip id="veh221" type="veh_passenger" depart="663.00" departLane="best" from="5955850#0" to="436291029"/>
    <trip id="veh222" type="veh_passenger" depart="666.00" departLane="best" from="436291011" to="gneE0"/>
    <trip id="veh223" type="veh_passenger" depart="669.00" departLane="best" from="436291064#1" to="436291019"/>
    <trip id="veh224" type="veh_passenger" depart="672.00" departLane="best" departSpeed="max" from="573865733#1" to="-5962129#4"/>
    <trip id="veh227" type="veh_passenger" depart="681.00" departLane="best" departSpeed="max" from="642337374#0" to="-5962129#3"/>
    <trip id="veh228" type="veh_passenger" depart="684.00" departLane="best" from="642337373" to="436291029"/>
    <trip id="veh229" type="veh_passenger" depart="687.00" departLane="best" departSpeed="max" from="573865733#1" to="436291029"/>
    <trip id="veh230" type="veh_passenger" depart="690.00" departLane="best" departSpeed="max" from="573865733#1" to="436291016#10"/>
    <trip id="veh231" type="veh_passenger" depart="693.00" departLane="best" departSpeed="max" from="573865733#1" to="36054466#10"/>
    <trip id="veh232" type="veh_passenger" depart="696.00" departLane="best" departSpeed="max" from="642337374#0" to="642751754#1"/>
    <trip id="veh233" type="veh_passenger" depart="699.00" departLane="best" from="642337373" to="593766961"/>
    <trip id="veh234" type="veh_passenger" depart="702.00" departLane="best" departSpeed="max" from="89922370#0" to="641705146#0"/>
    <trip id="veh235" type="veh_passenger" depart="705.00" departLane="best" departSpeed="max" from="419814433#0" to="36054466#0"/>
    <trip id="veh236" type="veh_passenger" depart="708.00" departLane="best" from="436291013" to="-419814433#0"/>
    <trip id="veh238" type="veh_passenger" depart="714.00" departLane="best" departSpeed="max" from="-5955850#2" to="-593766960"/>
    <trip id="veh239" type="veh_passenger" depart="717.00" departLane="best" from="5962129#3" to="436291029"/>
    <trip id="veh240" type="veh_passenger" depart="720.00" departLane="best" from="6024091#2" to="436291029"/>
    <trip id="veh241" type="veh_passenger" depart="723.00" departLane="best" from="436291018" to="436291064#1"/>
    <trip id="veh244" type="veh_passenger" depart="732.00" departLane="best" from="6024091#5" to="436291029"/>
    <trip id="veh245" type="veh_passenger" depart="735.00" departLane="best" departSpeed="max" from="642337374#0" to="641705063#3"/>
    <trip id="veh246" type="veh_passenger" depart="738.00" departLane="best" departSpeed="max" from="-593766962#1" to="-419814433#0"/>
    <trip id="veh247" type="veh_passenger" depart="741.00" departLane="best" departSpeed="max" from="89922370#0" to="642337373"/>
    <trip id="veh248" type="veh_passenger" depart="744.00" departLane="best" from="634644489" to="436291016#4"/>
    <trip id="veh249" type="veh_passenger" depart="747.00" departLane="best" departSpeed="max" from="-5955850#2" to="-419814433#0"/>
    <trip id="veh250" type="veh_passenger" depart="750.00" departLane="best" from="593766960" to="641705146#0"/>
    <trip id="veh251" type="veh_passenger" depart="753.00" departLane="best" departSpeed="max" from="89922370#0" to="-5962129#2"/>
    <trip id="veh252" type="veh_passenger" depart="756.00" departLane="best" departSpeed="max" from="642337374#0" to="36054466#6"/>
    <trip id="veh253" type="veh_passenger" depart="759.00" departLane="best" departSpeed="max" from="573865733#1" to="436291029"/>
    <trip id="veh254" type="veh_passenger" depart="762.00" departLane="best" departSpeed="max" from="-5955850#2" to="436291029"/>
    <trip id="veh255" type="veh_passenger" depart="765.00" departLane="best" departSpeed="max" from="89922370#0" to="436291016#10"/>
    <trip id="veh256" type="veh_passenger" depart="768.00" departLane="best" from="-641705065" to="36054466#10"/>
    <trip id="veh257" type="veh_passenger" depart="771.00" departLane="best" from="641705065" to="436291029"/>
    <trip id="veh258" type="veh_passenger" depart="774.00" departLane="best" departSpeed="max" from="436291021#0" to="642751754#0"/>
    <trip id="veh259" type="veh_passenger" depart="777.00" departLane="best" departSpeed="max" from="573865733#1" to="593766962#0"/>
    <trip id="veh261" type="veh_passenger" depart="783.00" departLane="best" departSpeed="max" from="-593766962#1" to="641705146#0"/>
    <trip id="veh262" type="veh_passenger" depart="786.00" departLane="best" departSpeed="max" from="642337374#0" to="593766961"/>
    <trip id="veh263" type="veh_passenger" depart="789.00" departLane="best" from="642337373" to="593766962#0"/>
    <trip id="veh264" type="veh_passenger" depart="792.00" departLane="best" from="436291013" to="5962129#3"/>
    <trip id="veh265" type="veh_passenger" depart="795.00" departLane="best" from="234953562" to="436291016#10"/>
    <trip id="veh267" type="veh_passenger" depart="801.00" departLane="best" from="641705063#0" to="5955850#0"/>
    <trip id="veh268" type="veh_passenger" depart="804.00" departLane="best" departSpeed="max" from="89922370#0" to="642361032"/>
    <trip id="veh269" type="veh_passenger" depart="807.00" departLane="best" departSpeed="max" from="89927838#0" to="5955850#2"/>
    <trip id="veh270" type="veh_passenger" depart="810.00" departLane="best" departSpeed="max" from="89922370#0" to="436291011"/>
    <trip id="veh271" type="veh_passenger" depart="813.00" departLane="best" from="6024091#2" to="436291029"/>
    <trip id="veh273" type="veh_passenger" depart="819.00" departLane="best" departSpeed="max" from="-5955850#2" to="641705063#0"/>
    <trip id="veh274" type="veh_passenger" depart="822.00" departLane="best" departSpeed="max" from="-593766962#1" to="436291016#0"/>