<?xml version="1.0" encoding="UTF-8"?>

<!-- generated on Tue Jun  2 10:25:52 2020 by Eclipse SUMO duarouter Version 1.6.0
<configuration xmlns:xsi="http://www.w3.org/2001/XMLSchema-instance" xsi:noNamespaceSchemaLocation="http://sumo.dlr.de/xsd/duarouterConfiguration.xsd">

    <input>
        <net-file value="osm.net.xml"/>
        <route-files value="osm.pedestrian.trips.xml"/>
    </input>

    <output>
        <output-file value="osm.pedestrian.rou.xml"/>
        <alternatives-output value="osm.pedestrian.rou.alt.xml"/>
    </output>

    <time>
        <begin value="0"/>
        <end value="1800.0"/>
    </time>

    <report>
        <no-warnings value="true"/>
        <ignore-errors value="true"/>
        <no-step-log value="true"/>
    </report>

</configuration>
-->

<routes xmlns:xsi="http://www.w3.org/2001/XMLSchema-instance" xsi:noNamespaceSchemaLocation="http://sumo.dlr.de/xsd/routes_file.xsd">
    <vType id="ped_pedestrian" vClass="pedestrian"/>
    <person id="ped0" type="ped_pedestrian" depart="0.00">
        <walk edges="578934723 578934724#0 -578934726 419814433#2 -419814433#1"/>
    </person>
    <person id="ped1" type="ped_pedestrian" depart="2.63">
        <walk edges="-5955850#0 436291016#0 436291031 641705064#0 641705063#3 -578942370 -578942371#1 -578942371#0"/>
    </person>
    <person id="ped2" type="ped_pedestrian" depart="5.26">
        <walk edges="578942365 36054466#3 36054466#4 641705063#1 -578942355 578942354#0"/>
    </person>
    <person id="ped3" type="ped_pedestrian" depart="7.89">
        <walk edges="634644489 641705065 641705064#0 436291031 436291016#0 436291016#4 436291016#9 -578934698"/>
    </person>
    <person id="ped4" type="ped_pedestrian" depart="10.52">
        <walk edges="436291011 436291010 436291031 641705064#0 -419814433#4 -419814433#2"/>
    </person>
    <person id="ped5" type="ped_pedestrian" depart="13.15">
        <walk edges="-578942370 641705063#3 641705064#0 436291031 436291062 436291064#1 642337372 641705146#0 641705146#1 -578605862#2 -578605861#0 578605861#1"/>
    </person>
    <person id="ped6" type="ped_pedestrian" depart="15.78">
        <walk edges="-419814433#2 -419814433#4 641705063#3 -578942370 -578942371#1 578942368#1 -578942367#2 -578942365"/>
    </person>
    <person id="ped7" type="ped_pedestrian" depart="18.41">
        <walk edges="578934724#2 -578934719 436291031 436291062 436291064#1 642337372 641705146#0 641705146#1 -578605862#2 -578934691#0 578934691#1"/>
    </person>
    <person id="ped8" type="ped_pedestrian" depart="21.04">
        <walk edges="-578942370 641705063#3 641705064#0 436291031 436291062 -578934717#0 -578934718#2 -578934718#1 578934716 6024091#3 -578934712 578934713#0"/>
    </person>
    <person id="ped9" type="ped_pedestrian" depart="23.68">
        <walk edges="578942375 436291020#2 436291019 642751754#0 -184711460"/>
    </person>
    <person id="ped10" type="ped_pedestrian" depart="26.31">
        <walk edges="578942372#2 578942369#1 578942369#0 -578942370 641705063#2 36054466#5 578942361#0 578942360#1 578942360#0"/>
    </person>
    <person id="ped11" type="ped_pedestrian" depart="28.94">
        <walk edges="278328405#1 436291019 436291020#2 436291020#0 641705063#0 641705063#1 641705063#2 641705063#3 641705064#0 -578934719 -578934723"/>
    </person>
    <person id="ped12" type="ped_pedestrian" depart="31.57">
        <walk edges="642361032 436291064#1 436291062 436291031 641705064#0 641705063#3 641705063#2 36054466#4 36054466#3 36054466#1 36054466#0 278328405#0"/>
    </person>
    <person id="ped13" type="ped_pedestrian" depart="34.20">
        <walk edges="-578934699 578934700#1 -578934700#1"/>
    </person>
    <person id="ped14" type="ped_pedestrian" depart="36.83">
        <walk edges="5962129#0 436291016#0 436291062 578934717#0"/>
    </person>
    <person id="ped15" type="ped_pedestrian" depart="39.46">
        <walk edges="578942372#2 578942369#1 578942369#0 -578942370 641705063#3 -419814433#4 578942364"/>
    </person>
    <person id="ped16" type="ped_pedestrian" depart="42.09">
        <walk edges="578934691#0 -578605862#2 641705146#1 641705146#0 642337372 436291064#1 436291062 436291031 641705064#0 641705063#3 641705063#2 641705063#1 641705063#0 89922370#5 89922370#0"/>
    </person>
    <person id="ped17" type="ped_pedestrian" depart="44.72">
        <walk edges="36054466#6 36054466#7 36054466#8 36054466#9 -5962129#3 -5962129#2 -5962129#1 436291016#4 578934698"/>
    </person>
    <person id="ped18" type="ped_pedestrian" depart="47.35">
        <walk edges="5955850#0 6024091#2 6024091#3 578934716 578934718#1"/>
    </person>
    <person id="ped19" type="ped_pedestrian" depart="49.98">
        <walk edges="5962129#4 5962129#3 5962129#2 5962129#0 -5955850#0 6024091#2 6024091#3 578934711"/>
    </person>
    <person id="ped20" type="ped_pedestrian" depart="52.61">
        <walk edges="578942360#1 578942361#0 36054466#5 641705063#2 641705063#3 641705064#0 436291031 436291062 436291064#1 642337372 641705146#0 641705146#1 -578605862#2 -578605861#0 -578605861#2"/>
    </person>
    <person id="ped21" type="ped_pedestrian" depart="55.24">
        <walk edges="-578942371#1 -578942370 641705063#3 -419814433#4 -419814433#2 -5962129#1"/>
    </person>
    <person id="ped22" type="ped_pedestrian" depart="57.87">
        <walk edges="-578934691#1 578934691#1 -578934691#0 -578605862#2 641705146#1 641705146#0 642337372 436291064#1 436291062 436291031 641705064#0 641705063#3 -578942370 -578942371#2"/>
    </person>
    <person id="ped23" type="ped_pedestrian" depart="60.50">
        <walk edges="-578934700#1 419814433#1 -5962129#1 5955850#0 -5955850#1"/>
    </person>
    <person id="ped24" type="ped_pedestrian" depart="63.13">
        <walk edges="578934722 623099335 -578934723 -578934719 641705064#0 641705063#3 641705063#2 36054466#4"/>
    </person>
    <person id="ped25" type="ped_pedestrian" depart="65.76">
        <walk edges="36054466#5 36054466#4 36054466#3 -578942365 -578942367#2 -578942367#1"/>
    </person>
    <person id="ped26" type="ped_pedestrian" depart="68.40">
        <walk edges="-593766962#1 -593766960 gneE0 5962129#5 5962129#4 36054466#9 36054466#8 36054466#7 36054466#6 36054466#5 641705063#2 641705063#3 641705064#0 436291031 436291062 436291064#1 642337372"/>
    </person>
    <person id="ped27" type="ped_pedestrian" depart="71.03">
        <walk edges="578934724#2 -578934719 436291031 436291062 -578934717#0 578934717#1"/>
    </person>
    <person id="ped28" type="ped_pedestrian" depart="73.66">
        <walk edges="-578942334 578942335 -593766960 gneE0 5962129#5 5962129#4 5962129#3 5962129#2 -419814433#2 578942364"/>
    </person>
    <person id="ped29" type="ped_pedestrian" depart="76.29">
        <walk edges="-578942331 36054466#1 36054466#3 36054466#4 36054466#5 36054466#6 36054466#7"/>
    </person>
    <person id="ped30" type="ped_pedestrian" depart="78.92">
        <walk edges="89927838#3 36054466#0 36054466#1 36054466#3 36054466#4 641705063#2 641705063#3 641705064#0 -578934719 578934723"/>
    </person>
    <person id="ped31" type="ped_pedestrian" depart="81.55">
        <walk edges="578934699 578934700#1 419814433#1 -5962129#2 -5962129#3 36054466#9 36054466#8 36054466#7 36054466#6 36054466#5 641705063#1 578942355"/>
    </person>
    <person id="ped32" type="ped_pedestrian" depart="84.18">
        <walk edges="5955850#2 -5955850#1 6024091#2 6024091#3 578934716 -578934718#1 -578934718#2 -578934717#0 436291062 436291031 641705064#0 641705063#3 578942370"/>
    </person>
    <person id="ped33" type="ped_pedestrian" depart="86.81">
        <walk edges="-578942371#1 -578942370 641705063#3 -419814433#4"/>
    </person>
    <person id="ped34" type="ped_pedestrian" depart="89.44">
        <walk edges="-89927838#0 -89927838#3 36054466#0 36054466#1 36054466#3 36054466#4 36054466#5 36054466#6 36054466#7 36054466#8 36054466#9 5962129#4 5962129#5 -593766965"/>
    </person>
    <person id="ped35" type="ped_pedestrian" depart="92.07">
        <walk edges="-578942367#1 -578942367#2 -578942365 36054466#1 36054466#0 634644489 234953562 642337373"/>
    </person>
    <person id="ped36" type="ped_pedestrian" depart="94.70">
        <walk edges="6024091#3 578934716 -578934718#1 -578934718#2 -578934717#0 436291062 436291031 641705064#0 641705065 634644489 -89927838#3 -89927838#0"/>
    </person>
    <person id="ped37" type="ped_pedestrian" depart="97.33">
        <walk edges="578934726 419814433#2 419814433#1 419814433#0"/>
    </person>
    <person id="ped38" type="ped_pedestrian" depart="99.96">
        <walk edges="641705064#0 641705063#3 641705063#2 641705063#1 641705063#0 436291020#0 436291020#2 436291019"/>
    </person>
    <person id="ped39" type="ped_pedestrian" depart="102.59">
        <walk edges="-593766962#1 -593766960 gneE0 5962129#5 5962129#4 36054466#9 36054466#8 36054466#7 36054466#6 36054466#5 641705063#2 -578942370 578942369#0 578942369#1 -578942372#1"/>
    </person>
    <person id="ped40" type="ped_pedestrian" depart="105.22">
        <walk edges="578934700#1 419814433#1 -5962129#2 -5962129#3 -5962129#4 -593766965 gneE0 -593766960 -593766962#1"/>
    </person>
    <person id="ped41" type="ped_pedestrian" depart="107.85">
        <walk edges="578934712 6024091#3 578934716 -578934718#1 -578934718#2 -578934717#0 436291062 436291031 641705064#0 641705063#3 641705063#2 641705063#1 641705063#0"/>
    </person>
    <person id="ped42" type="ped_pedestrian" depart="110.48">
        <walk edges="419814433#1 -419814433#2 -419814433#4 641705063#3 -578942370"/>
    </person>
    <person id="ped43" type="ped_pedestrian" depart="113.12">
        <walk edges="gneE1 5962129#5 5962129#4 36054466#9 36054466#8 36054466#7 36054466#6 36054466#5 641705063#2 641705063#3 641705064#0 436291031 436291062 436291064#1 642337372 641705146#0 641705146#1 -578605862#2 -578605861#0 578605861#1"/>
    </person>
    <person id="ped44" type="ped_pedestrian" depart="115.75">
        <walk edges="-578934699 578934700#1 419814433#1 419814433#2 419814433#4 641705064#0 436291031 436291062 436291064#1 642337372 641705146#0 641705146#1 -578605862#2 -578605861#0 -578605861#2"/>
    </person>
    <person id="ped45" type="ped_pedestrian" depart="118.38">
        <walk edges="-578934709#1 -5955850#1 6024091#2 6024091#3 578934716 -578934718#1 -578934718#2 -578934717#0 436291062 436291031 578934719"/>
    </person>
    <person id="ped46" type="ped_pedestrian" depart="121.01">
        <walk edges="578942371#2 -578942370 641705063#3 641705064#0 436291031 436291010 436291011"/>
    </person>
    <person id="ped47" type="ped_pedestrian" depart="123.64">
        <walk edges="-578934689 641705146#0 642337372 436291064#1 436291062 436291031 641705064#0 641705063#3 641705063#2 36054466#5 36054466#6 36054466#7"/>
    </person>
    <person id="ped48" type="ped_pedestrian" depart="126.27">
        <walk edges="gneE1 5962129#5 5962129#4 36054466#9 36054466#8 36054466#7 36054466#6 36054466#5 641705063#2 641705063#3 641705064#0 436291031 436291062 436291064#1 642337372 641705146#0 578934689"/>
    </person>
    <person id="ped49" type="ped_pedestrian" depart="128.90">
        <walk edges="89922370#0 89922370#5 641705063#0 641705063#1 36054466#5 36054466#6 36054466#7 36054466#8 36054466#9 5962129#4"/>
    </person>
    <person id="ped50" type="ped_pedestrian" depart="131.53">
        <walk edges="-184711461 89922370#5 641705063#0 641705063#1 36054466#5 36054466#6 36054466#7 36054466#8 578942362"/>
    </person>
    <person id="ped51" type="ped_pedestrian" depart="134.16">
        <walk edges="578942354#1 -578942355 641705063#1 641705063#2 641705063#3 641705064#0 436291031 436291062 436291064#1 642337372 641705146#0 641705146#1 -578605862#2 578934691#0"/>
    </person>
    <person id="ped52" type="ped_pedestrian" depart="136.79">
        <walk edges="-593766962#1 -593766960 gneE0 5962129#5 5962129#4 5962129#3 5962129#2 419814433#2 -578934726 578934724#0 578934723"/>
    </person>
    <person id="ped53" type="ped_pedestrian" depart="139.42">
        <walk edges="-578934711 6024091#3 6024091#2 5955850#0 436291016#4 436291016#9 436291016#10"/>
    </person>
    <person id="ped54" type="ped_pedestrian" depart="142.05">
        <walk edges="436291018 641705063#0 641705063#1 641705063#2 641705063#3 641705064#0 436291031 436291062 436291064#1 642337372 642337374#1"/>
    </person>
    <person id="ped55" type="ped_pedestrian" depart="144.68">
        <walk edges="6024091#3 6024091#2 -5955850#0 5962129#0 5962129#2 5962129#3 5962129#4 5962129#5 gneE0 -593766960 -593766962#1"/>
    </person>
    <person id="ped56" type="ped_pedestrian" depart="147.31">
        <walk edges="578605861#0 -578605862#2 641705146#1 641705146#0 642337372 436291064#1 436291062 436291031 641705064#0 641705063#3 641705063#2 641705063#1 -578942355"/>
    </person>
    <person id="ped57" type="ped_pedestrian" depart="149.94">
        <walk edges="641705063#3 641705064#0 436291031 436291062 -578934717#0 -578934718#2 -578934718#1 578934716 6024091#3 6024091#2"/>
    </person>
    <person id="ped58" type="ped_pedestrian" depart="152.57">
        <walk edges="-5962129#3 -5962129#2 419814433#2 -578934726 578934724#0 578934723"/>
    </person>
    <person id="ped59" type="ped_pedestrian" depart="155.20">
        <walk edges="578934717#1 -578934717#0 436291062 436291031 -578934719 -578934723"/>
    </person>
    <person id="ped60" type="ped_pedestrian" depart="157.84">
        <walk edges="578942368#1 -578942367#2 -578942365 36054466#1 36054466#0 634644489 234953562 642337373 641705146#0 641705146#1 -578605862#2 578934691#0"/>
    </person>
    <person id="ped61" type="ped_pedestrian" depart="160.47">
        <walk edges="578942371#0 -578942365 36054466#1 36054466#0 634644489 234953562 642337373 641705146#0 641705146#1 -578605862#2 -578934691#0 578934690"/>
    </person>
    <person id="ped63" type="ped_pedestrian" depart="165.73">
        <walk edges="-419814433#0 -419814433#1 -419814433#2 -419814433#4 641705064#0 436291031 436291062 436291064#1 642337372 641705146#0"/>
    </person>
    <person id="ped64" type="ped_pedestrian" depart="168.36">
        <walk edges="6024091#3 6024091#2 5955850#0"/>
    </person>
    <person id="ped65" type="ped_pedestrian" depart="170.99">
        <walk edges="-5962129#4 36054466#9 36054466#8 36054466#7 36054466#6 36054466#5 641705063#2 641705063#3 641705064#0 436291031 436291062 436291064#1 642337372 641705146#0 641705146#1 -578605862#2"/>
    </person>
    <person id="ped66" type="ped_pedestrian" depart="173.62">
        <walk edges="6024091#3 6024091#5 642337372 642337374#1 642337374#0"/>
    </person>
    <person id="ped67" type="ped_pedestrian" depart="176.25">
        <walk edges="-578934692 642337374#1 642337372 436291064#1 436291062"/>
    </person>
    <person id="ped68" type="ped_pedestrian" depart="178.88">
        <walk edges="-578934690 -578934691#0 -578605862#2 641705146#1 641705146#0 642337373 234953562 634644489 36054466#0 36054466#1 -578942365 -578942367#2 578942368#1"/>
    </person>
    <person id="ped69" type="ped_pedestrian" depart="181.51">
        <walk edges="578942369#0 -578942370 641705063#3 641705064#0 436291031 436291062 -578934717#0 -578934717#1"/>
    </person>
    <person id="ped70" type="ped_pedestrian" depart="184.14">
        <walk edges="436291029 278328405#1 278328405#0 634644489 234953562 642337373 642337374#1 -578934692 578934692"/>
    </person>
    <person id="ped71" type="ped_pedestrian" depart="186.77">
        <walk edges="-593766962#1 -593766960 gneE0 5962129#5 5962129#4 5962129#3 5962129#2 5962129#0 -5955850#0 6024091#2"/>
    </person>
    <person id="ped72" type="ped_pedestrian" depart="189.40">
        <walk edges="436291011 234953562 634644489 36054466#0 36054466#1 -578942365 -578942367#2 -578942367#1"/>
    </person>
    <person id="ped73" type="ped_pedestrian" depart="192.03">
        <walk edges="578934691#0 -578605862#2 641705146#1 641705146#0 642337372 436291064#1 436291062 436291031 641705064#0 -419814433#4 578942364"/>
    </person>
    <person id="ped74" type="ped_pedestrian" depart="194.66">
        <walk edges="-578942365 36054466#1 36054466#0 634644489 -641705065"/>
    </person>
    <person id="ped75" type="ped_pedestrian" depart="197.29">
        <walk edges="gneE1 5962129#5 5962129#4 5962129#3 5962129#2 419814433#2 -578934726 578934724#2"/>
    </person>
    <person id="ped76" type="ped_pedestrian" depart="199.92">
        <walk edges="436291016#10 436291016#9 436291016#4 5955850#0 6024091#2 6024091#3 6024091#5 642337372 641705146#0 641705146#1 -578605862#2 578605862#0"/>
    </person>
    <person id="ped77" type="ped_pedestrian" depart="202.56">
        <walk edges="-578934712 6024091#3 578934716 -578934718#1 -578934718#2 -578934717#0 436291062 436291031 641705064#0 641705063#3 -578942370 -578942371#1 -578942371#0"/>
    </person>
    <person id="ped78" type="ped_pedestrian" depart="205.19">
        <walk edges="278328405#0 36054466#0 36054466#1 36054466#3 36054466#4 641705063#2 641705063#3 641705064#0 436291031 436291062 -578934717#0 -578934718#2 -578934718#1 578934716 6024091#3 -578934712 578934713#0"/>
    </person>
    <person id="ped79" type="ped_pedestrian" depart="207.82">
        <walk edges="-578942371#1 -578942370"/>
    </person>
    <person id="ped80" type="ped_pedestrian" depart="210.45">
        <walk edges="-578934691#0 -578605862#2 641705146#1 641705146#0 642337372 436291064#1 436291062 436291031 578934719"/>
    </person>
    <person id="ped81" type="ped_pedestrian" depart="213.08">
        <walk edges="-578942371#1 -578942370 641705063#2"/>
    </person>
    <person id="ped82" type="ped_pedestrian" depart="215.71">
        <walk edges="5962129#4 36054466#9 36054466#8 36054466#7 36054466#6 36054466#5 641705063#2 641705063#3 641705064#0 436291031 436291062 436291064#1 642337372 641705146#0 641705146#1 -578605862#2 -578934691#0"/>
    </person>
    <person id="ped83" type="ped_pedestrian" depart="218.34">
        <walk edges="-578942372#0 578942368#0 -578942367#2 -578942365 36054466#3 36054466#4 36054466#5 36054466#6 36054466#7 36054466#8 36054466#9 5962129#4 5962129#5 gneE0 -593766960 578942335"/>
    </person>
    <person id="ped84" type="ped_pedestrian" depart="220.97">
        <walk edges="-578942367#2 578942368#1 -578942371#1 -578942370 641705063#3 641705064#0 436291031 436291062 -578934717#0 -578934718#2 -578934718#0"/>
    </person>
    <person id="ped85" type="ped_pedestrian" depart="223.60">
        <walk edges="642337372 6024091#5 6024091#3 6024091#2 -5955850#1 578934709#1"/>
    </person>
    <person id="ped86" type="ped_pedestrian" depart="226.23">
        <walk edges="436291021#0 gneE0 5962129#5 5962129#4 36054466#9 36054466#8 36054466#7 36054466#6 36054466#5 641705063#2 -578942370 578942371#1"/>
    </person>
    <person id="ped87" type="ped_pedestrian" depart="228.86">
        <walk edges="578942372#2 578942369#1 578942369#0 -578942370 641705063#2 36054466#5 36054466#6 36054466#7 36054466#8 36054466#9 5962129#4 -578942358"/>
    </person>
    <person id="ped88" type="ped_pedestrian" depart="231.49">
        <walk edges="-578934700#1 419814433#1 419814433#2 419814433#4 641705064#0 436291031 436291016#0"/>
    </person>
    <person id="ped89" type="ped_pedestrian" depart="234.12">
        <walk edges="436291011 234953562 634644489 278328405#0 436291019 436291020#2"/>
    </person>
    <person id="ped90" type="ped_pedestrian" depart="236.75">
        <walk edges="578942364 -419814433#4 641705063#3 641705063#2 641705063#1 -578942355 578942354#0"/>
    </person>
    <person id="ped91" type="ped_pedestrian" depart="239.38">
        <walk edges="89927838#0 89927838#3 36054466#0 36054466#1 36054466#3 36054466#4 36054466#5 36054466#6 36054466#7 36054466#8 36054466#9 -5962129#3 -5962129#2 419814433#1 -578934700#1"/>
    </person>
    <person id="ped92" type="ped_pedestrian" depart="242.01">
        <walk edges="419814433#1 -5962129#2 -5962129#3 36054466#9 36054466#8 36054466#7 36054466#6 36054466#5 641705063#1 641705063#0 436291020#0 436291020#2 436291019 278328405#1"/>
    </person>
    <person id="ped93" type="ped_pedestrian" depart="244.65">
        <walk edges="5962129#4 36054466#9 36054466#8 36054466#7 36054466#6 36054466#5 641705063#2 -578942370 578942369#0 -578942367#0 -578942372#2"/>
    </person>
    <person id="ped94" type="ped_pedestrian" depart="247.28">
        <walk edges="-578942358 5962129#4 -5962129#3 -5962129#2 -5962129#1 436291016#4 436291016#9"/>
    </person>
    <person id="ped95" type="ped_pedestrian" depart="249.91">
        <walk edges="436291011 436291010 436291062 -578934717#0 -578934718#2 -578934718#1 578934716 6024091#3 6024091#2 -5955850#1"/>
    </person>
    <person id="ped96" type="ped_pedestrian" depart="252.54">
        <walk edges="-578942372#2 -578942367#0 578942369#0 -578942370 641705063#3 641705065"/>
    </person>
    <person id="ped97" type="ped_pedestrian" depart="255.17">
        <walk edges="436291016#4 -5962129#1 -5962129#2 -5962129#3 5962129#4"/>
    </person>
    <person id="ped98" type="ped_pedestrian" depart="257.80">
        <walk edges="578934692 -578934692 642337374#1 641705146#0 641705146#1 -578605862#2 -578605862#0"/>
    </person>
    <person id="ped99" type="ped_pedestrian" depart="260.43">
        <walk edges="gneE1 -593766965 -5962129#4 -5962129#3 -5962129#2 -5962129#1 5955850#0 5955850#1"/>
    </person>
    <person id="ped100" type="ped_pedestrian" depart="263.06">
        <walk edges="642751754#1 642751754#0 278328405#0 634644489 234953562 642337373 641705146#0"/>
    </person>
    <person id="ped101" type="ped_pedestrian" depart="265.69">
        <walk edges="5962129#2 5962129#3 36054466#9 36054466#8 36054466#7 36054466#6 36054466#5 36054466#4 36054466#3 36054466#1 -578942331"/>
    </person>
    <person id="ped102" type="ped_pedestrian" depart="268.32">
        <walk edges="436291062 436291031 641705064#0 641705063#3 -578942370 -578942371#1 578942368#1 -578942367#2"/>
    </person>
    <person id="ped103" type="ped_pedestrian" depart="270.95">
        <walk edges="419814433#1 419814433#2 419814433#4 641705064#0 436291031 436291062 436291064#1 642337372 641705146#0 641705146#1 -578605862#2"/>
    </person>
    <person id="ped104" type="ped_pedestrian" depart="273.58">
        <walk edges="36054466#7 36054466#6 36054466#5 36054466#4 36054466#3 36054466#1 36054466#0 89927838#3"/>
    </person>
    <person id="ped105" type="ped_pedestrian" depart="276.21">
        <walk edges="-593766962#1 -593766960 gneE0 5962129#5 5962129#4 36054466#9 36054466#8 36054466#7 36054466#6 36054466#5 641705063#2 -578942370 578942371#1"/>
    </person>
    <person id="ped106" type="ped_pedestrian" depart="278.84">
        <walk edges="436291019 278328405#0 634644489 234953562 436291011"/>
    </person>
    <person id="ped107" type="ped_pedestrian" depart="281.47">
        <walk edges="642361032 436291064#1 436291062 436291031 641705064#0 641705063#3 641705063#2 36054466#5 36054466#6 36054466#7 36054466#8 36054466#9 5962129#4 5962129#5 gneE1"/>
    </person>
    <person id="ped108" type="ped_pedestrian" depart="284.10">
        <walk edges="578934699 578934700#1 419814433#1 5962129#2 578942362"/>
    </person>
    <person id="ped109" type="ped_pedestrian" depart="286.73">
        <walk edges="-578934723 578934724#0 -578934726 419814433#2 -5962129#2"/>
    </person>
    <person id="ped110" type="ped_pedestrian" depart="289.37">
        <walk edges="642751754#1 642751754#0 436291019 436291020#2 436291020#0 641705063#0 641705063#1 641705063#2 641705063#3 641705064#0 436291031 436291062 -578934717#0 -578934718#2 -578934718#1 578934716 578934711"/>
    </person>
    <person id="ped111" type="ped_pedestrian" depart="292.00">
        <walk edges="578934691#1 -578934691#0 -578605862#2 641705146#1 641705146#0 642337373 234953562 634644489 36054466#0 36054466#1 -578942365 578942367#2"/>
    </person>
    <person id="ped112" type="ped_pedestrian" depart="294.63">
        <walk edges="-578605862#2 641705146#1 641705146#0 642337372 6024091#5 6024091#3 578934712"/>
    </person>
    <person id="ped113" type="ped_pedestrian" depart="297.26">
        <walk edges="578605861#0 -578605862#2 641705146#1 641705146#0 642337372 436291064#1 436291062 436291031 641705064#0 -419814433#4 -419814433#2 5962129#2"/>
    </person>
    <person id="ped114" type="ped_pedestrian" depart="299.89">
        <walk edges="-578934726 419814433#4 641705063#3 641705063#2 641705063#1 641705063#0 436291020#0 436291020#2 436291019 642751754#0"/>
    </person>
    <person id="ped115" type="ped_pedestrian" depart="302.52">
        <walk edges="-578934691#1 578934691#1 -578934691#0 -578605862#2 641705146#1 641705146#0 642337372 436291064#1 436291062 436291031 641705064#0 641705063#3 641705063#2 36054466#5 36054466#6 36054466#7 36054466#8 36054466#9 5962129#4 5962129#5 -578942357"/>
    </person>
    <person id="ped116" type="ped_pedestrian" depart="305.15">
        <walk edges="578934713#1 -578934712 6024091#3 578934716 -578934718#1 -578934718#2 -578934717#0 436291062 436291031 641705064#0 641705063#3 641705063#2 641705063#1 -578942355 578942354#0"/>
    </person>
    <person id="ped117" type="ped_pedestrian" depart="307.78">
        <walk edges="-578942371#2 -578942370 641705063#3 641705064#0 436291031 436291062 -578934717#0 -578934718#2 -578934718#1 578934716 6024091#3 -578934712"/>
    </person>
    <person id="ped118" type="ped_pedestrian" depart="310.41">
        <walk edges="634644489 36054466#0 36054466#1 -578942365 -578942367#2 578942368#0 -578942372#1"/>
    </person>
    <person id="ped119" type="ped_pedestrian" depart="313.04">
        <walk edges="578934713#1 -578934712 6024091#3 578934716 578934718#1"/>
    </person>
    <person id="ped120" type="ped_pedestrian" depart="315.67">
        <walk edges="436291011 436291010 436291062 -578934717#0 -578934718#2 -578934718#1 578934716 6024091#3 578934712"/>
    </person>
    <person id="ped121" type="ped_pedestrian" depart="318.30">
        <walk edges="578605862#2 641705146#1 641705146#0 642337372"/>
    </person>
    <person id="ped122" type="ped_pedestrian" depart="320.93">
        <walk edges="-578942367#0 578942369#0 -578942370 641705063#2 36054466#5 578942361#0 578942361#1"/>
    </person>
    <person id="ped123" type="ped_pedestrian" depart="323.56">
        <walk edges="-578942372#0 578942368#0 578942368#1 -578942371#1 -578942370 641705063#3 -419814433#4 -419814433#2 419814433#1 419814433#0"/>
    </person>
    <person id="ped124" type="ped_pedestrian" depart="326.19">
        <walk edges="578942335 -593766960 gneE0 -593766965 -5962129#4 -5962129#3"/>
    </person>
    <person id="ped125" type="ped_pedestrian" depart="328.82">
        <walk edges="-89927838#0 -89927838#3 36054466#0 36054466#1 -578942365 578942367#2"/>
    </person>
    <person id="ped126" type="ped_pedestrian" depart="331.45">
        <walk edges="-578934691#0 -578605862#2 641705146#1 641705146#0 642337373 234953562 634644489 278328405#0 436291019"/>
    </person>
    <person id="ped127" type="ped_pedestrian" depart="334.09">
        <walk edges="gneE1"/>
    </person>
    <person id="ped128" type="ped_pedestrian" depart="336.72">
        <walk edges="-578934691#0 -578605862#2 641705146#1 641705146#0 642337373 234953562 634644489 36054466#0 36054466#1 -578942365 -578942367#2"/>
    </person>
    <person id="ped129" type="ped_pedestrian" depart="339.35">
        <walk edges="-593766962#1 -593766960 gneE0 5962129#5 5962129#4 36054466#9 36054466#8 36054466#7 36054466#6 36054466#5 641705063#2 641705063#3 641705064#0 436291031 436291062 436291064#1 642337372 641705146#0 641705146#1"/>
    </person>
    <person id="ped130" type="ped_pedestrian" depart="341.98">
        <walk edges="6024091#5"/>
    </person>
    <person id="ped131" type="ped_pedestrian" depart="344.61">
        <walk edges="36054466#5 641705063#2 641705063#3 419814433#4 -578934726"/>
    </person>
    <person id="ped132" type="ped_pedestrian" depart="347.24">
        <walk edges="5955850#1 5955850#0 5962129#0 5962129#2 5962129#3 5962129#4 -578942358 578942360#1"/>
    </person>
    <person id="ped133" type="ped_pedestrian" depart="349.87">
        <walk edges="578934718#0 -578934718#2 -578934717#0 436291062 436291031 641705064#0 641705063#3 641705063#2 36054466#4 36054466#3 36054466#1 36054466#0 89927838#3"/>
    </person>
    <person id="ped134" type="ped_pedestrian" depart="352.50">
        <walk edges="578934726 419814433#4 641705063#3 641705063#2 36054466#4 36054466#3 36054466#1 36054466#0 89927838#3 -184711460"/>
    </person>
    <person id="ped135" type="ped_pedestrian" depart="355.13">
        <walk edges="593766960 gneE0 -593766965 -5962129#4 -5962129#3"/>
    </person>
    <person id="ped136" type="ped_pedestrian" depart="357.76">
        <walk edges="578942334 578942335 -593766960 gneE0 5962129#5 5962129#4 36054466#9 36054466#8 36054466#7 36054466#6 36054466#5 641705063#2 641705063#3 641705064#0 436291031 436291062 436291064#1 642337372"/>
    </person>
    <person id="ped137" type="ped_pedestrian" depart="360.39">
        <walk edges="-578934718#0 578934716 -578934711"/>
    </person>
    <person id="ped138" type="ped_pedestrian" depart="363.02">
        <walk edges="-578934709#1 5955850#1 5955850#0 436291016#4 578934698"/>
    </person>
    <person id="ped139" type="ped_pedestrian" depart="365.65">
        <walk edges="-593766965 5962129#5 5962129#4 36054466#9 36054466#8 36054466#7 36054466#6 36054466#5 641705063#2 641705063#3 641705064#0 436291031 436291062 578934717#0"/>
    </person>
    <person id="ped140" type="ped_pedestrian" depart="368.28">
        <walk edges="578942362 36054466#8 36054466#7 36054466#6 36054466#5 641705063#2 -578942370 578942369#0 -578942367#0"/>
    </person>
    <person id="ped141" type="ped_pedestrian" depart="370.91">