<?xml version="1.0" encoding="UTF-8"?>

<!-- generated on 06/16/20 20:04:58 by Eclipse SUMO duarouter Version 1.6.0
<configuration xmlns:xsi="http://www.w3.org/2001/XMLSchema-instance" xsi:noNamespaceSchemaLocation="http://sumo.dlr.de/xsd/duarouterConfiguration.xsd">

    <input>
        <net-file value="osm.net.xml"/>
        <route-files value="osm.passenger.trips.xml"/>
    </input>

    <output>
        <output-file value="osm.passenger.trips.xml.tmp"/>
        <write-trips value="true"/>
    </output>

    <time>
        <begin value="0"/>
        <end value="1800.0"/>
    </time>

    <report>
        <no-warnings value="true"/>
        <ignore-errors value="true"/>
        <no-step-log value="true"/>
    </report>

</configuration>
-->

<routes xmlns:xsi="http://www.w3.org/2001/XMLSchema-instance" xsi:noNamespaceSchemaLocation="http://sumo.dlr.de/xsd/routes_file.xsd">
    <vType id="veh_passenger" vClass="passenger"/>
    <trip id="veh0" type="veh_passenger" depart="0.00" departLane="best" departSpeed="max" from="419814433#0" to="36054466#3"/>
    <trip id="veh1" type="veh_passenger" depart="2.40" departLane="best" from="641705063#1" to="5955850#2"/>
    <trip id="veh2" type="veh_passenger" depart="4.80" departLane="best" departSpeed="max" from="89922370#0" to="-5962129#2"/>
    <trip id="veh4" type="veh_passenger" depart="9.60" departLane="best" from="5962129#0" to="436291029"/>
    <trip id="veh5" type="veh_passenger" depart="12.00" departLane="best" from="642337373" to="-419814433#0"/>
    <trip id="veh6" type="veh_passenger" depart="14.40" departLane="best" departSpeed="max" from="89927838#0" to="436291016#0"/>
    <trip id="veh7" type="veh_passenger" depart="16.80" departLane="best" departSpeed="max" from="-5955850#2" to="-5962129#4"/>
    <trip id="veh8" type="veh_passenger" depart="19.20" departLane="best" from="642337372" to="5962129#5"/>
    <trip id="veh9" type="veh_passenger" depart="21.60" departLane="best" from="436291064#1" to="642751754#1"/>
    <trip id="veh11" type="veh_passenger" depart="26.40" departLane="best" departSpeed="max" from="642337374#0" to="593766961"/>
    <trip id="veh12" type="veh_passenger" depart="28.80" departLane="best" from="-5955850#1" to="36054466#4"/>
    <trip id="veh13" type="veh_passenger" depart="31.20" departLane="best" departSpeed="max" from="-5955850#2" to="419814433#2"/>
    <trip id="veh14" type="veh_passenger" depart="33.60" departLane="best" departSpeed="max" from="419814433#0" to="642751754#1"/>
    <trip id="veh15" type="veh_passenger" depart="36.00" departLane="best" from="5962129#0" to="593766960"/>
    <trip id="veh16" type="veh_passenger" depart="38.40" departLane="best" from="234953562" to="436291016#10"/>
    <trip id="veh17" type="veh_passenger" depart="40.80" departLane="best" from="89927838#3" to="593766962#0"/>
    <trip id="veh18" type="veh_passenger" depart="43.20" departLane="best" departSpeed="max" from="573865733#1" to="5955850#2"/>
    <trip id="veh19" type="veh_passenger" depart="45.60" departLane="best" departSpeed="max" from="642337374#0" to="641705063#0"/>
    <trip id="veh20" type="veh_passenger" depart="48.00" departLane="best" departSpeed="max" from="573865733#1" to="36054466#9"/>
    <trip id="veh21" type="veh_passenger" depart="50.40" departLane="best" departSpeed="max" from="573865733#1" to="642361032"/>
    <trip id="veh22" type="veh_passenger" depart="52.80" departLane="best" departSpeed="max" from="-5955850#2" to="-419814433#4"/>
    <trip id="veh23" type="veh_passenger" depart="55.20" departLane="best" departSpeed="max" from="-5955850#2" to="593766962#0"/>
    <trip id="veh25" type="veh_passenger" depart="60.00" departLane="best" from="6024091#2" to="436291029"/>
    <trip id="veh26" type="veh_passenger" depart="62.40" departLane="best" departSpeed="max" from="419814433#0" to="593766962#0"/>
    <trip id="veh27" type="veh_passenger" depart="64.80" departLane="best" departSpeed="max" from="-5955850#2" to="436291018"/>
    <trip id="veh28" type="veh_passenger" depart="67.20" departLane="best" departSpeed="max" from="436291021#0" to="642751754#1"/>
    <trip id="veh29" type="veh_passenger" depart="69.60" departLane="best" from="642337374#1" to="36054466#9"/>
    <trip id="veh31" type="veh_passenger" depart="74.40" departLane="best" from="419814433#4" to="593766962#0"/>
    <trip id="veh32" type="veh_passenger" depart="76.80" departLane="best" from="641705064#0" to="436291029"/>
    <trip id="veh34" type="veh_passenger" depart="81.60" departLane="best" from="642337374#1" to="642751754#1"/>
    <trip id="veh35" type="veh_passenger" depart="84.00" departLane="best" departSpeed="max" from="-5955850#2" to="436291029"/>
    <trip id="veh36" type="veh_passenger" depart="86.40" departLane="best" from="-5955850#0" to="634644489"/>
    <trip id="veh37" type="veh_passenger" depart="88.80" departLane="best" departSpeed="max" from="436291021#0" to="436291029"/>
    <trip id="veh38" type="veh_passenger" depart="91.20" departLane="best" departSpeed="max" from="419814433#0" to="642361032"/>
    <trip id="veh40" type="veh_passenger" depart="96.00" departLane="best" from="-5955850#0" to="593766962#0"/>
    <trip id="veh41" type="veh_passenger" depart="98.40" departLane="best" from="36054466#6" to="642361032"/>
    <trip id="veh42" type="veh_passenger" depart="100.80" departLane="best" from="36054466#8" to="5955850#2"/>
    <trip id="veh43" type="veh_passenger" depart="103.20" departLane="best" departSpeed="max" from="89922370#0" to="436291031"/>
    <trip id="veh44" type="veh_passenger" depart="105.60" departLane="best" from="642337372" to="36054466#10"/>
    <trip id="veh45" type="veh_passenger" depart="108.00" departLane="best" from="641705063#0" to="5955850#2"/>
    <trip id="veh46" type="veh_passenger" depart="110.40" departLane="best" departSpeed="max" from="89927838#0" to="-5962129#4"/>
    <trip id="veh47" type="veh_passenger" depart="112.80" departLane="best" departSpeed="max" from="642337374#0" to="36054466#7"/>
    <trip id="veh48" type="veh_passenger" depart="115.20" departLane="best" departSpeed="max" from="573865733#1" to="-419814433#4"/>
    <trip id="veh49" type="veh_passenger" depart="117.60" departLane="best" from="gneE1" to="641705146#1"/>
    <trip id="veh50" type="veh_passenger" depart="120.00" departLane="best" departSpeed="max" from="642337374#0" to="278328405#0"/>
    <trip id="veh51" type="veh_passenger" depart="122.40" departLane="best" departSpeed="max" from="89927838#0" to="gneE0"/>
    <trip id="veh52" type="veh_passenger" depart="124.80" departLane="best" departSpeed="max" from="573865733#1" to="5962129#4"/>
    <trip id="veh53" type="veh_passenger" depart="127.20" departLane="best" departSpeed="max" from="-593766962#1" to="436291062"/>
    <trip id="veh54" type="veh_passenger" depart="129.60" departLane="best" from="-5955850#1" to="36054466#1"/>
    <trip id="veh55" type="veh_passenger" depart="132.00" departLane="best" departSpeed="max" from="573865733#1" to="5955850#2"/>
    <trip id="veh56" type="veh_passenger" depart="134.40" departLane="best" from="36054466#7" to="-89927838#0"/>
    <trip id="veh57" type="veh_passenger" depart="136.80" departLane="best" departSpeed="max" from="573865733#1" to="593766961"/>
    <trip id="veh59" type="veh_passenger" depart="141.60" departLane="best" from="436291062" to="642751754#1"/>
    <trip id="veh60" type="veh_passenger" depart="144.00" departLane="best" from="-5955850#0" to="436291019"/>
    <trip id="veh61" type="veh_passenger" depart="146.40" departLane="best" departSpeed="max" from="419814433#0" to="642751754#1"/>
    <trip id="veh64" type="veh_passenger" depart="153.60" departLane="best" departSpeed="max" from="642337374#0" to="5962129#0"/>
    <trip id="veh65" type="veh_passenger" depart="156.00" departLane="best" from="5962129#3" to="642751754#1"/>
    <trip id="veh66" type="veh_passenger" depart="158.40" departLane="best" from="-5962129#3" to="-89927838#0"/>
    <trip id="veh67" type="veh_passenger" depart="160.80" departLane="best" departSpeed="max" from="-5955850#2" to="436291029"/>
    <trip id="veh68" type="veh_passenger" depart="163.20" departLane="best" departSpeed="max" from="419814433#0" to="436291064#1"/>
    <trip id="veh69" type="veh_passenger" depart="165.60" departLane="best" from="634644489" to="36054466#10"/>
    <trip id="veh70" type="veh_passenger" depart="168.00" departLane="best" departSpeed="max" from="436291021#0" to="642361032"/>
    <trip id="veh71" type="veh_passenger" depart="170.40" departLane="best" departSpeed="max" from="642337374#0" to="-5962129#3"/>
    <trip id="veh73" type="veh_passenger" depart="175.20" departLane="best" departSpeed="max" from="89922370#0" to="36054466#10"/>
    <trip id="veh74" type="veh_passenger" depart="177.60" departLane="best" departSpeed="max" from="642337374#0" to="642751754#1"/>
    <trip id="veh75" type="veh_passenger" depart="180.00" departLane="best" from="-593766960" to="6024091#2"/>
    <trip id="veh76" type="veh_passenger" depart="182.40" departLane="best" departSpeed="max" from="436291021#0" to="436291011"/>
    <trip id="veh77" type="veh_passenger" depart="184.80" departLane="best" departSpeed="max" from="89922370#0" to="-89927838#0"/>
    <trip id="veh78" type="veh_passenger" depart="187.20" departLane="best" departSpeed="max" from="89927838#0" to="36054466#9"/>
    <trip id="veh79" type="veh_passenger" depart="189.60" departLane="best" departSpeed="max" from="-5955850#2" to="436291018"/>
    <trip id="veh80" type="veh_passenger" depart="192.00" departLane="best" departSpeed="max" from="573865733#1" to="436291029"/>
    <trip id="veh81" type="veh_passenger" depart="194.40" departLane="best" from="-419814433#1" to="642751754#0"/>
    <trip id="veh82" type="veh_passenger" depart="196.80" departLane="best" from="641705063#2" to="5955850#2"/>
    <trip id="veh83" type="veh_passenger" depart="199.20" departLane="best" departSpeed="max" from="89922370#0" to="5955850#2"/>
    <trip id="veh84" type="veh_passenger" depart="201.60" departLane="best" from="419814433#4" to="436291029"/>
    <trip id="veh86" type="veh_passenger" depart="206.40" departLane="best" departSpeed="max" from="436291021#0" to="642361032"/>
    <trip id="veh88" type="veh_passenger" depart="211.20" departLane="best" departSpeed="max" from="-5955850#2" to="436291029"/>
    <trip id="veh89" type="veh_passenger" depart="213.60" departLane="best" from="36054466#1" to="-419814433#0"/>
    <trip id="veh90" type="veh_passenger" depart="216.00" departLane="best" from="36054466#0" to="5955850#2"/>
    <trip id="veh91" type="veh_passenger" depart="218.40" departLane="best" from="36054466#9" to="642337372"/>
    <trip id="veh92" type="veh_passenger" depart="220.80" departLane="best" departSpeed="max" from="436291021#0" to="641705063#3"/>
    <trip id="veh93" type="veh_passenger" depart="223.20" departLane="best" departSpeed="max" from="642337374#0" to="436291029"/>
    <trip id="veh94" type="veh_passenger" depart="225.60" departLane="best" departSpeed="max" from="89922370#0" to="6024091#3"/>
    <trip id="veh95" type="veh_passenger" depart="228.00" departLane="best" from="641705064#0" to="436291029"/>
    <trip id="veh97" type="veh_passenger" depart="232.80" departLane="best" from="436291064#1" to="-89927838#0"/>
    <trip id="veh98" type="veh_passenger" depart="235.20" departLane="best" from="36054466#7" to="5955850#2"/>
    <trip id="veh101" type="veh_passenger" depart="242.40" departLane="best" departSpeed="max" from="573865733#1" to="5955850#2"/>
    <trip id="veh102" type="veh_passenger" depart="244.80" departLane="best" departSpeed="max" from="642337374#0" to="634644489"/>
    <trip id="veh103" type="veh_passenger" depart="247.20" departLane="best" departSpeed="max" from="642337374#0" to="642751754#1"/>
    <trip id="veh106" type="veh_passenger" depart="254.40" departLane="best" from="436291013" to="5955850#2"/>
    <trip id="veh107" type="veh_passenger" depart="256.80" departLane="best" departSpeed="max" from="436291021#0" to="-89927838#0"/>
    <trip id="veh108" type="veh_passenger" depart="259.20" departLane="best" departSpeed="max" from="-593766962#1" to="436291016#10"/>
    <trip id="veh109" type="veh_passenger" depart="261.60" departLane="best" from="-419814433#4" to="436291029"/>
    <trip id="veh110" type="veh_passenger" depart="264.00" departLane="best" from="89922370#5" to="36054466#10"/>
    <trip id="veh111" type="veh_passenger" depart="266.40" departLane="best" from="-5962129#2" to="5955850#2"/>
    <trip id="veh112" type="veh_passenger" depart="268.80" departLane="best" departSpeed="max" from="573865733#1" to="36054466#10"/>
    <trip id="veh113" type="veh_passenger" depart="271.20" departLane="best" from="6024091#5" to="634644489"/>
    <trip id="veh114" type="veh_passenger" depart="273.60" departLane="best" from="234953562" to="593766960"/>
    <trip id="veh115" type="veh_passenger" depart="276.00" departLane="best" departSpeed="max" from="642337374#0" to="642751754#1"/>
    <trip id="veh116" type="veh_passenger" depart="278.40" departLane="best" departSpeed="max" from="-5955850#2" to="-419814433#0"/>
    <trip id="veh117" type="veh_passenger" depart="280.80" departLane="best" departSpeed="max" from="89927838#0" to="436291016#10"/>
    <trip id="veh118" type="veh_passenger" depart="283.20" departLane="best" from="6024091#3" to="593766962#0"/>
    <trip id="veh119" type="veh_passenger" depart="285.60" departLane="best" departSpeed="max" from="-5955850#2" to="641705063#0"/>
    <trip id="veh122" type="veh_passenger" depart="292.80" departLane="best" departSpeed="max" from="-5955850#2" to="642751754#1"/>
    <trip id="veh123" type="veh_passenger" depart="295.20" departLane="best" from="6024091#5" to="436291018"/>
    <trip id="veh124" type="veh_passenger" depart="297.60" departLane="best" from="436291064#1" to="436291020#2"/>
    <trip id="veh126" type="veh_passenger" depart="302.40" departLane="best" departSpeed="max" from="419814433#0" to="642337372"/>
    <trip id="veh127" type="veh_passenger" depart="304.80" departLane="best" departSpeed="max" from="642337374#0" to="-5962129#2"/>
    <trip id="veh128" type="veh_passenger" depart="307.20" departLane="best" departSpeed="max" from="642337374#0" to="36054466#0"/>
    <trip id="veh129" type="veh_passenger" depart="309.60" departLane="best" from="-419814433#2" to="642751754#1"/>
    <trip id="veh130" type="veh_passenger" depart="312.00" departLane="best" departSpeed="max" from="-5955850#2" to="5962129#4"/>
    <trip id="veh131" type="veh_passenger" depart="314.40" departLane="best" departSpeed="max" from="436291021#0" to="6024091#5"/>
    <trip id="veh132" type="veh_passenger" depart="316.80" departLane="best" from="6024091#3" to="593766962#0"/>
    <trip id="veh133" type="veh_passenger" depart="319.20" departLane="best" departSpeed="max" from="-5955850#2" to="36054466#3"/>
    <trip id="veh134" type="veh_passenger" depart="321.60" departLane="best" departSpeed="max" from="573865733#1" to="436291020#0"/>
    <trip id="veh135" type="veh_passenger" depart="324.00" departLane="best" departSpeed="max" from="419814433#0" to="-89927838#0"/>
    <trip id="veh138" type="veh_passenger" depart="331.20" departLane="best" from="6024091#3" to="-89927838#0"/>
    <trip id="veh139" type="veh_passenger" depart="333.60" departLane="best" departSpeed="max" from="642337374#0" to="436291029"/>
    <trip id="veh140" type="veh_passenger" depart="336.00" departLane="best" departSpeed="max" from="642337374#0" to="436291016#10"/>
    <trip id="veh141" type="veh_passenger" depart="338.40" departLane="best" from="-5955850#0" to="593766962#0"/>
    <trip id="veh142" type="veh_passenger" depart="340.80" departLane="best" departSpeed="max" from="-593766962#1" to="234953562"/>
    <trip id="veh143" type="veh_passenger" depart="343.20" departLane="best" from="gneE0" to="-89927838#0"/>
    <trip id="veh145" type="veh_passenger" depart="348.00" departLane="best" from="6024091#5" to="436291019"/>
    <trip id="veh146" type="veh_passenger" depart="350.40" departLane="best" from="6024091#2" to="642751754#0"/>
    <trip id="veh148" type="veh_passenger" depart="355.20" departLane="best" from="5962129#3" to="642751754#1"/>
    <trip id="veh149" type="veh_passenger" depart="357.60" departLane="best" from="419814433#1" to="-89927838#0"/>
    <trip id="veh150" type="veh_passenger" depart="360.00" departLane="best" departSpeed="max" from="-593766962#1" to="436291016#9"/>
    <trip id="veh151" type="veh_passenger" depart="362.40" departLane="best" departSpeed="max" from="-5955850#2" to="642751754#1"/>
    <trip id="veh152" type="veh_passenger" depart="364.80" departLane="best" departSpeed="max" from="-593766962#1" to="6024091#5"/>
    <trip id="veh153" type="veh_passenger" depart="367.20" departLane="best" departSpeed="max" from="573865733#1" to="593766962#0"/>
    <trip id="veh154" type="veh_passenger" depart="369.60" departLane="best" from="436291011" to="5955850#2"/>
    <trip id="veh155" type="veh_passenger" depart="372.00" departLane="best" from="419814433#1" to="642751754#1"/>
    <trip id="veh156" type="veh_passenger" depart="374.40" departLane="best" from="642337373" to="436291029"/>
    <trip id="veh158" type="veh_passenger" depart="379.20" departLane="best" from="89927838#3" to="5955850#0"/>
    <trip id="veh161" type="veh_passenger" depart="386.40" departLane="best" from="-5962129#1" to="642751754#1"/>
    <trip id="veh162" type="veh_passenger" depart="388.80" departLane="best" departSpeed="max" from="573865733#1" to="36054466#5"/>
    <trip id="veh163" type="veh_passenger" depart="391.20" departLane="best" from="234953562" to="436291029"/>
    <trip id="veh164" type="veh_passenger" depart="393.60" departLane="best" departSpeed="max" from="573865733#1" to="-5962129#3"/>
    <trip id="veh165" type="veh_passenger" depart="396.00" departLane="best" from="89927838#3" to="642361032"/>
    <trip id="veh166" type="veh_passenger" depart="398.40" departLane="best" departSpeed="max" from="436291021#0" to="-89927838#0"/>
    <trip id="veh167" type="veh_passenger" depart="400.80" departLane="best" departSpeed="max" from="642337374#0" to="436291029"/>
    <trip id="veh168" type="veh_passenger" depart="403.20" departLane="best" from="634644489" to="436291029"/>
    <trip id="veh169" type="veh_passenger" depart="405.60" departLane="best" departSpeed="max" from="419814433#0" to="641705146#1"/>
    <trip id="veh170" type="veh_passenger" depart="408.00" departLane="best" departSpeed="max" from="89927838#0" to="36054466#6"/>
    <trip id="veh171" type="veh_passenger" depart="410.40" departLane="best" departSpeed="max" from="573865733#1" to="436291016#10"/>
    <trip id="veh172" type="veh_passenger" depart="412.80" departLane="best" departSpeed="max" from="573865733#1" to="gneE1"/>
    <trip id="veh173" type="veh_passenger" depart="415.20" departLane="best" departSpeed="max" from="436291021#0" to="234953562"/>
    <trip id="veh174" type="veh_passenger" depart="417.60" departLane="best" departSpeed="max" from="573865733#1" to="436291029"/>
    <trip id="veh176" type="veh_passenger" depart="422.40" departLane="best" from="36054466#0" to="5955850#2"/>
    <trip id="veh177" type="veh_passenger" depart="424.80" departLane="best" from="642337373" to="436291016#10"/>
    <trip id="veh178" type="veh_passenger" depart="427.20" departLane="best" from="642337374#1" to="436291018"/>
    <trip id="veh179" type="veh_passenger" depart="429.60" departLane="best" from="641705063#0" to="436291016#4"/>
    <trip id="veh180" type="veh_passenger" depart="432.00" departLane="best" departSpeed="max" from="436291021#0" to="642751754#1"/>
    <trip id="veh181" type="veh_passenger" depart="434.40" departLane="best" from="436291013" to="5955850#2"/>
    <trip id="veh182" type="veh_passenger" depart="436.80" departLane="best" from="642337374#1" to="-419814433#1"/>
    <trip id="veh183" type="veh_passenger" depart="439.20" departLane="best" departSpeed="max" from="-5955850#2" to="593766962#0"/>
    <trip id="veh184" type="veh_passenger" depart="441.60" departLane="best" from="642337374#1" to="436291018"/>
    <trip id="veh185" type="veh_passenger" depart="444.00" departLane="best" from="-641705065" to="436291029"/>
    <trip id="veh186" type="veh_passenger" depart="446.40" departLane="best" from="642337374#1" to="593766961"/>
    <trip id="veh187" type="veh_passenger" depart="448.80" departLane="best" from="36054466#8" to="642361032"/>
    <trip id="veh188" type="veh_passenger" depart="451.20" departLane="best" departSpeed="max" from="89922370#0" to="5955850#2"/>
    <trip id="veh189" type="veh_passenger" depart="453.60" departLane="best" departSpeed="max" from="419814433#0" to="642337372"/>
    <trip id="veh190" type="veh_passenger" depart="456.00" departLane="best" from="36054466#1" to="436291016#10"/>
    <trip id="veh191" type="veh_passenger" depart="458.40" departLane="best" departSpeed="max" from="89927838#0" to="5955850#0"/>
    <trip id="veh192" type="veh_passenger" depart="460.80" departLane="best" departSpeed="max" from="436291021#0" to="642361032"/>
    <trip id="veh193" type="veh_passenger" depart="463.20" departLane="best" departSpeed="max" from="573865733#1" to="436291016#10"/>
    <trip id="veh194" type="veh_passenger" depart="465.60" departLane="best" from="5962129#3" to="641705146#1"/>
    <trip id="veh195" type="veh_passenger" depart="468.00" departLane="best" from="593766961" to="642361032"/>
    <trip id="veh196" type="veh_passenger" depart="470.40" departLane="best" from="436291064#1" to="642751754#1"/>
    <trip id="veh197" type="veh_passenger" depart="472.80" departLane="best" departSpeed="max" from="642337374#0" to="36054466#8"/>
    <trip id="veh198" type="veh_passenger" depart="475.20" departLane="best" departSpeed="max" from="642337374#0" to="436291020#2"/>
    <trip id="veh199" type="veh_passenger" depart="477.60" departLane="best" from="-419814433#4" to="436291029"/>
    <trip id="veh200" type="veh_passenger" depart="480.00" departLane="best" departSpeed="max" from="436291021#0" to="5955850#2"/>
    <trip id="veh201" type="veh_passenger" depart="482.40" departLane="best" departSpeed="max" from="642337374#0" to="642751754#1"/>
    <trip id="veh202" type="veh_passenger" depart="484.80" departLane="best" departSpeed="max" from="-5955850#2" to="36054466#4"/>
    <trip id="veh203" type="veh_passenger" depart="487.20" departLane="best" from="-593766960" to="642361032"/>
    <trip id="veh204" type="veh_passenger" depart="489.60" departLane="best" departSpeed="max" from="573865733#1" to="642361032"/>
    <trip id="veh205" type="veh_passenger" depart="492.00" departLane="best" from="-5962129#4" to="642751754#1"/>
    <trip id="veh206" type="veh_passenger" depart="494.40" departLane="best" from="419814433#4" to="436291029"/>
    <trip id="veh207" type="veh_passenger" depart="496.80" departLane="best" from="89922370#5" to="436291016#4"/>
    <trip id="veh208" type="veh_passenger" depart="499.20" departLane="best" from="89922370#5" to="642337373"/>
    <trip id="veh209" type="veh_passenger" depart="501.60" departLane="best" departSpeed="max" from="642337374#0" to="436291019"/>
    <trip id="veh210" type="veh_passenger" depart="504.00" departLane="best" departSpeed="max" from="573865733#1" to="-419814433#0"/>
    <trip id="veh212" type="veh_passenger" depart="508.80" departLane="best" from="-5955850#0" to="634644489"/>
    <trip id="veh213" type="veh_passenger" depart="511.20" departLane="best" from="-641705065" to="642361032"/>
    <trip id="veh214" type="veh_passenger" depart="513.60" departLane="best" departSpeed="max" from="419814433#0" to="278328405#1"/>
    <trip id="veh216" type="veh_passenger" depart="518.40" departLane="best" departSpeed="max" from="-5955850#2" to="436291029"/>
    <trip id="veh217" type="veh_passenger" depart="520.80" departLane="best" departSpeed="max" from="89927838#0" to="-593766965"/>
    <trip id="veh218" type="veh_passenger" depart="523.20" departLane="best" from="6024091#2" to="436291029"/>
    <trip id="veh220" type="veh_passenger" depart="528.00" departLane="best" from="-5955850#1" to="593766960"/>
    <trip id="veh221" type="veh_passenger" depart="530.40" departLane="best" from="5955850#0" to="436291029"/>
    <trip id="veh222" type="veh_passenger" depart="532.80" departLane="best" from="436291011" to="gneE0"/>
    <trip id="veh223" type="veh_passenger" depart="535.20" departLane="best" from="436291064#1" to="436291019"/>
    <trip id="veh224" type="veh_passenger" depart="537.60" departLane="best" departSpeed="max" from="573865733#1" to="-5962129#4"/>
    <trip id="veh227" type="veh_passenger" depart="544.80" departLane="best" departSpeed="max" from="642337374#0" to="-5962129#3"/>
    <trip id="veh228" type="veh_passenger" depart="547.20" departLane="best" from="642337373" to="436291029"/>
    <trip id="veh229" type="veh_passenger" depart="549.60" departLane="best" departSpeed="max" from="573865733#1" to="436291029"/>
    <trip id="veh230" type="veh_passenger" depart="552.00" departLane="best" departSpeed="max" from="573865733#1" to="436291016#10"/>
    <trip id="veh231" type="veh_passenger" depart="554.40" departLane="best" departSpeed="max" from="573865733#1" to="36054466#10"/>
    <trip id="veh232" type="veh_passenger" depart="556.80" departLane="best" departSpeed="max" from="642337374#0" to="642751754#1"/>
    <trip id="veh233" type="veh_passenger" depart="559.20" departLane="best" from="642337373" to="593766961"/>
    <trip id="veh234" type="veh_passenger" depart="561.60" departLane="best" departSpeed="max" from="89922370#0" to="641705146#0"/>
    <trip id="veh235" type="veh_passenger" depart="564.00" departLane="best" departSpeed="max" from="419814433#0" to="36054466#0"/>
    <trip id="veh236" type="veh_passenger" depart="566.40" departLane="best" from="436291013" to="-419814433#0"/>
    <trip id="veh238" type="veh_passenger" depart="571.20" departLane="best" departSpeed="max" from="-5955850#2" to="-593766960"/>
    <trip id="veh239" type="veh_passenger" depart="573.60" departLane="best" from="5962129#3" to="436291029"/>
    <trip id="veh240" type="veh_passenger" depart="576.00" departLane="best" from="6024091#2" to="436291029"/>
    <trip id="veh241" type="veh_passenger" depart="578.40" departLane="best" from="436291018" to="436291064#1"/>
    <trip id="veh244" type="veh_passenger" depart="585.60" departLane="best" from="6024091#5" to="436291029"/>
    <trip id="veh245" type="veh_passenger" depart="588.00" departLane="best" departSpeed="max" from="642337374#0" to="641705063#3"/>
    <trip id="veh246" type="veh_passenger" depart="590.40" departLane="best" departSpeed="max" from="-593766962#1" to="-419814433#0"/>
    <trip id="veh247" type="veh_passenger" depart="592.80" departLane="best" departSpeed="max" from="89922370#0" to="642337373"/>
    <trip id="veh248" type="veh_passenger" depart="595.20" departLane="best" from="634644489" to="436291016#4"/>
    <trip id="veh249" type="veh_passenger" depart="597.60" departLane="best" departSpeed="max" from="-5955850#2" to="-419814433#0"/>
    <trip id="veh250" type="veh_passenger" depart="600.00" departLane="best" from="593766960" to="641705146#0"/>
    <trip id="veh251" type="veh_passenger" depart="602.40" departLane="best" departSpeed="max" from="89922370#0" to="-5962129#2"/>
    <trip id="veh252" type="veh_passenger" depart="604.80" departLane="best" departSpeed="max" from="642337374#0" to="36054466#6"/>
    <trip id="veh253" type="veh_passenger" depart="607.20" departLane="best" departSpeed="max" from="573865733#1" to="436291029"/>
    <trip id="veh254" type="veh_passenger" depart="609.60" departLane="best" departSpeed="max" from="-5955850#2" to="436291029"/>
    <trip id="veh255" type="veh_passenger" depart="612.00" departLane="best" departSpeed="max" from="89922370#0" to="436291016#10"/>
    <trip id="veh256" type="veh_passenger" depart="614.40" departLane="best" from="-641705065" to="36054466#10"/>
    <trip id="veh257" type="veh_passenger" depart="616.80" departLane="best" from="641705065" to="436291029"/>
    <trip id="veh258" type="veh_passenger" depart="619.20" departLane="best" departSpeed="max" from="436291021#0" to="642751754#0"/>
    <trip id="veh259" type="veh_passenger" depart="621.60" departLane="best" departSpeed="max" from="573865733#1" to="593766962#0"/>
    <trip id="veh261" type="veh_passenger" depart="626.40" departLane="best" departSpeed="max" from="-593766962#1" to="641705146#0"/>
    <trip id="veh262" type="veh_passenger" depart="628.80" departLane="best" departSpeed="max" from="642337374#0" to="593766961"/>
    <trip id="veh263" type="veh_passenger" depart="631.20" departLane="best" from="642337373" to="593766962#0"/>
    <trip id="veh264" type="veh_passenger" depart="633.60" departLane="best" from="436291013" to="5962129#3"/>
    <trip id="veh265" type="veh_passenger" depart="636.00" departLane="best" from="234953562" to="436291016#10"/>
    <trip id="veh267" type="veh_passenger" depart="640.80" departLane="best" from="641705063#0" to="5955850#0"/>
    <trip id="veh268" type="veh_passenger" depart="643.20" departLane="best" departSpeed="max" from="89922370#0" to="642361032"/>
    <trip id="veh269" type="veh_passenger" depart="645.60" departLane="best" departSpeed="max" from="89927838#0" to="5955850#2"/>
    <trip id="veh270" type="veh_passenger" depart="648.00" departLane="best" departSpeed="max" from="89922370#0" to="436291011"/>
    <trip id="veh271" type="veh_passenger" depart="650.40" departLane="best" from="6024091#2" to="436291029"/>
    <trip id="veh273" type="veh_passenger" depart="655.20" departLane="best" departSpeed="max" from="-5955850#2" to="641705063#0"/>
    <trip id="veh274" type="veh_passenger" depart="657.60" departLane="best" departSpeed="max" from="-593766962#1" to="436291016#0"/>
    <trip id="veh276" type="veh_passenger" depart="662.40" departLane="best" departSpeed="max" from="642337374#0" to="641705063#0"/>