<?xml version="1.0" encoding="UTF-8"?>

<!-- generated on 06/08/20 17:40:04 by Eclipse SUMO duarouter Version 1.6.0
<configuration xmlns:xsi="http://www.w3.org/2001/XMLSchema-instance" xsi:noNamespaceSchemaLocation="http://sumo.dlr.de/xsd/duarouterConfiguration.xsd">

    <input>
        <net-file value="osm.net.xml"/>
        <route-files value="osm.bus.trips.xml"/>
    </input>

    <output>
        <output-file value="osm.bus.trips.xml.tmp"/>
        <write-trips value="true"/>
    </output>

    <time>
        <begin value="0"/>
        <end value="1800.0"/>
    </time>

    <report>
        <no-warnings value="true"/>
        <ignore-errors value="true"/>
        <no-step-log value="true"/>
    </report>

</configuration>
-->

<routes xmlns:xsi="http://www.w3.org/2001/XMLSchema-instance" xsi:noNamespaceSchemaLocation="http://sumo.dlr.de/xsd/routes_file.xsd">
    <vType id="bus_bus" vClass="bus"/>
    <trip id="bus0" type="bus_bus" depart="0.00" departLane="best" departSpeed="max" from="642337374#0" to="593766962#0"/>
    <trip id="bus1" type="bus_bus" depart="26.00" departLane="best" departSpeed="max" from="642337374#0" to="593766962#0"/>
    <trip id="bus2" type="bus_bus" depart="52.00" departLane="best" departSpeed="max" from="-5955850#2" to="593766962#0"/>
    <trip id="bus3" type="bus_bus" depart="78.00" departLane="best" departSpeed="max" from="89922370#0" to="642361032"/>
    <trip id="bus4" type="bus_bus" depart="104.00" departLane="best" departSpeed="max" from="89922370#0" to="642361032"/>
    <trip id="bus5" type="bus_bus" depart="130.00" departLane="best" departSpeed="max" from="-593766962#1" to="642361032"/>
    <trip id="bus7" type="bus_bus" depart="182.00" departLane="best" departSpeed="max" from="642337374#0" to="593766962#0"/>
    <trip id="bus9" type="bus_bus" depart="234.00" departLane="best" departSpeed="max" from="-5955850#2" to="436291029"/>
    <trip id="bus10" type="bus_bus" depart="260.00" departLane="best" departSpeed="max" from="89922370#0" to="5955850#2"/>
    <trip id="bus12" type="bus_bus" depart="312.00" departLane="best" departSpeed="max" from="642337374#0" to="593766962#0"/>
    <trip id="bus13" type="bus_bus" depart="338.00" departLane="best" departSpeed="max" from="-5955850#2" to="436291029"/>
    <trip id="bus14" type="bus_bus" depart="364.00" departLane="best" departSpeed="max" from="89922370#0" to="642361032"/>
    <trip id="bus15" type="bus_bus" depart="390.00" departLane="best" departSpeed="max" from="-593766962#1" to="5955850#2"/>
    <trip id="bus16" type="bus_bus" depart="416.00" departLane="best" departSpeed="max" from="-5955850#2" to="593766962#0"/>
    <trip id="bus18" type="bus_bus" depart="468.00" departLane="best" departSpeed="max" from="642337374#0" to="436291029"/>
    <trip id="bus19" type="bus_bus" depart="494.00" departLane="best" departSpeed="max" from="89922370#0" to="642361032"/>
    <trip id="bus21" type="bus_bus" depart="546.00" departLane="best" departSpeed="max" from="642337374#0" to="593766962#0"/>
    <trip id="bus23" type="bus_bus" depart="598.00" departLane="best" departSpeed="max" from="-593766962#1" to="642361032"/>
    <trip id="bus26" type="bus_bus" depart="676.00" departLane="best" departSpeed="max" from="-593766962#1" to="642361032"/>
    <trip id="bus27" type="bus_bus" depart="702.00" departLane="best" departSpeed="max" from="642337374#0" to="436291029"/>
    <trip id="bus28" type="bus_bus" depart="728.00" departLane="best" departSpeed="max" from="89922370#0" to="5955850#2"/>
    <trip id="bus29" type="bus_bus" depart="754.00" departLane="best" departSpeed="max" from="-593766962#1" to="642361032"/>
    <trip id="bus32" type="bus_bus" depart="832.00" departLane="best" departSpeed="max" from="-593766962#1" to="5955850#2"/>
    <trip id="bus34" type="bus_bus" depart="884.00" departLane="best" departSpeed="max" from="-5955850#2" to="593766962#0"/>
    <trip id="bus37" type="bus_bus" depart="962.00" departLane="best" departSpeed="max" from="-5955850#2" to="593766962#0"/>
    <trip id="bus39" type="bus_bus" depart="1014.00" departLane="best" departSpeed="max" from="-593766962#1" to="5955850#2"/>
    <trip id="bus40" type="bus_bus" depart="1040.00" departLane="best" departSpeed="max" from="642337374#0" to="593766962#0"/>
    <trip id="bus41" type="bus_bus" depart="1066.00" departLane="best" departSpeed="max" from="89922370#0" to="642361032"/>
    <trip id="bus42" type="bus_bus" depart="1092.00" departLane="best" departSpeed="max" from="-5955850#2" to="436291029"/>
    <trip id="bus45" type="bus_bus" depart="1170.00" departLane="best" departSpeed="max" from="-5955850#2" to="436291029"/>
    <trip id="bus46" type="bus_bus" depart="1196.00" departLane="best" departSpeed="max" from="-593766962#1" to="642361032"/>
    <trip id="bus48" type="bus_bus" depart="1248.00" departLane="best" departSpeed="max" from="-5955850#2" to="436291029"/>
    <trip id="bus49" type="bus_bus" depart="1274.00" departLane="best" departSpeed="max" from="-593766962#1" to="642361032"/>
    <trip id="bus50" type="bus_bus" depart="1300.00" departLane="best" departSpeed="max" from="-593766962#1" to="642361032"/>
    <trip id="bus51" type="bus_bus" depart="1326.00" departLane="best" departSpeed="max" from="-593766962#1" to="642361032"/>
    <trip id="bus52" type="bus_bus" depart="1352.00" departLane="best" departSpeed="max" from="-593766962#1" to="642361032"/>
    <trip id="bus54" type="bus_bus" depart="1404.00" departLane="best" departSpeed="max" from="-593766962#1" to="5955850#2"/>
    <trip id="bus55" type="bus_bus" depart="1430.00" departLane="best" departSpeed="max" from="-5955850#2" to="593766962#0"/>
    <trip id="bus56" type="bus_bus" depart="1456.00" departLane="best" departSpeed="max" from="642337374#0" to="436291029"/>
    <trip id="bus58" type="bus_bus" depart="1508.00" departLane="best" departSpeed="max" from="642337374#0" to="436291029"/>
    <trip id="bus59" type="bus_bus" depart="1534.00" departLane="best" departSpeed="max" from="642337374#0" to="593766962#0"/>
    <trip id="bus60" type="bus_bus" depart="1560.00" departLane="best" departSpeed="max" from="642337374#0" to="436291029"/>
    <trip id="bus61" type="bus_bus" depart="1586.00" departLane="best" departSpeed="max" from="-593766962#1" to="642361032"/>
    <trip id="bus62" type="bus_bus" depart="1612.00" departLane="best" departSpeed="max" from="-593766962#1" to="642361032"/>
    <trip id="bus63" type="bus_bus" depart="1638.00" departLane="best" departSpeed="max" from="89922370#0" to="642361032"/>
    <trip id="bus66" type="bus_bus" depart="1716.00" departLane="best" departSpeed="max" from="642337374#0" to="436291029"/>
    <trip id="bus67" type="bus_bus" depart="1742.00" departLane="best" departSpeed="max" from="-5955850#2" to="436291029"/>
    <trip id="bus69" type="bus_bus" depart="1794.00" departLane="best" departSpeed="max" from="89922370#0" to="5955850#2"/>
</routes>
