<?xml version="1.0" encoding="UTF-8"?>

<!-- generated on Wed Jun  3 21:12:24 2020 by Eclipse SUMO duarouter Version 1.6.0
<configuration xmlns:xsi="http://www.w3.org/2001/XMLSchema-instance" xsi:noNamespaceSchemaLocation="http://sumo.dlr.de/xsd/duarouterConfiguration.xsd">

    <input>
        <net-file value="osm.net.xml"/>
        <route-files value="osm.pedestrian.trips.xml"/>
    </input>

    <output>
        <output-file value="osm.pedestrian.rou.xml"/>
        <alternatives-output value="osm.pedestrian.rou.alt.xml"/>
    </output>

    <time>
        <begin value="0"/>
        <end value="1800.0"/>
    </time>

    <report>
        <no-warnings value="true"/>
        <ignore-errors value="true"/>
        <no-step-log value="true"/>
    </report>

</configuration>
-->

<routes xmlns:xsi="http://www.w3.org/2001/XMLSchema-instance" xsi:noNamespaceSchemaLocation="http://sumo.dlr.de/xsd/routes_file.xsd">
    <vType id="ped_pedestrian" vClass="pedestrian"/>
    <person id="ped0" type="ped_pedestrian" depart="0.00">
        <walk edges="578934723 578934724#0 -578934726 419814433#2 -419814433#1"/>
    </person>
    <person id="ped1" type="ped_pedestrian" depart="3.50">
        <walk edges="-5955850#0 436291016#0 436291031 641705064#0 641705063#3 -578942370 -578942371#1 -578942371#0"/>
    </person>
    <person id="ped2" type="ped_pedestrian" depart="7.00">
        <walk edges="578942365 36054466#3 36054466#4 641705063#1 -578942355 578942354#0"/>
    </person>
    <person id="ped3" type="ped_pedestrian" depart="10.50">
        <walk edges="634644489 641705065 641705064#0 436291031 436291016#0 436291016#4 436291016#9 -578934698"/>
    </person>
    <person id="ped4" type="ped_pedestrian" depart="14.00">
        <walk edges="436291011 436291010 436291031 641705064#0 -419814433#4 -419814433#2"/>
    </person>
    <person id="ped5" type="ped_pedestrian" depart="17.50">
        <walk edges="-578942370 641705063#3 641705064#0 436291031 436291062 436291064#1 642337372 641705146#0 641705146#1 -578605862#2 -578605861#0 578605861#1"/>
    </person>
    <person id="ped6" type="ped_pedestrian" depart="21.00">
        <walk edges="-419814433#2 -419814433#4 641705063#3 -578942370 -578942371#1 578942368#1 -578942367#2 -578942365"/>
    </person>
    <person id="ped7" type="ped_pedestrian" depart="24.50">
        <walk edges="578934724#2 -578934719 436291031 436291062 436291064#1 642337372 641705146#0 641705146#1 -578605862#2 -578934691#0 578934691#1"/>
    </person>
    <person id="ped8" type="ped_pedestrian" depart="28.00">
        <walk edges="-578942370 641705063#3 641705064#0 436291031 436291062 -578934717#0 -578934718#2 -578934718#1 578934716 6024091#3 -578934712 578934713#0"/>
    </person>
    <person id="ped9" type="ped_pedestrian" depart="31.50">
        <walk edges="578942375 436291020#2 436291019 642751754#0 -184711460"/>
    </person>
    <person id="ped10" type="ped_pedestrian" depart="35.00">
        <walk edges="578942372#2 578942369#1 578942369#0 -578942370 641705063#2 36054466#5 578942361#0 578942360#1 578942360#0"/>
    </person>
    <person id="ped11" type="ped_pedestrian" depart="38.50">
        <walk edges="278328405#1 436291019 436291020#2 436291020#0 641705063#0 641705063#1 641705063#2 641705063#3 641705064#0 -578934719 -578934723"/>
    </person>
    <person id="ped12" type="ped_pedestrian" depart="42.00">
        <walk edges="642361032 436291064#1 436291062 436291031 641705064#0 641705063#3 641705063#2 36054466#4 36054466#3 36054466#1 36054466#0 278328405#0"/>
    </person>
    <person id="ped13" type="ped_pedestrian" depart="45.50">
        <walk edges="-578934699 578934700#1 -578934700#1"/>
    </person>
    <person id="ped14" type="ped_pedestrian" depart="49.00">
        <walk edges="5962129#0 436291016#0 436291062 578934717#0"/>
    </person>
    <person id="ped15" type="ped_pedestrian" depart="52.50">
        <walk edges="578942372#2 578942369#1 578942369#0 -578942370 641705063#3 -419814433#4 578942364"/>
    </person>
    <person id="ped16" type="ped_pedestrian" depart="56.00">
        <walk edges="578934691#0 -578605862#2 641705146#1 641705146#0 642337372 436291064#1 436291062 436291031 641705064#0 641705063#3 641705063#2 641705063#1 641705063#0 89922370#5 89922370#0"/>
    </person>
    <person id="ped17" type="ped_pedestrian" depart="59.50">
        <walk edges="36054466#6 36054466#7 36054466#8 36054466#9 -5962129#3 -5962129#2 -5962129#1 436291016#4 578934698"/>
    </person>
    <person id="ped18" type="ped_pedestrian" depart="63.00">
        <walk edges="5955850#0 6024091#2 6024091#3 578934716 578934718#1"/>
    </person>
    <person id="ped19" type="ped_pedestrian" depart="66.50">
        <walk edges="5962129#4 5962129#3 5962129#2 5962129#0 -5955850#0 6024091#2 6024091#3 578934711"/>
    </person>
    <person id="ped20" type="ped_pedestrian" depart="70.00">
        <walk edges="578942360#1 578942361#0 36054466#5 641705063#2 641705063#3 641705064#0 436291031 436291062 436291064#1 642337372 641705146#0 641705146#1 -578605862#2 -578605861#0 -578605861#2"/>
    </person>
    <person id="ped21" type="ped_pedestrian" depart="73.50">
        <walk edges="-578942371#1 -578942370 641705063#3 -419814433#4 -419814433#2 -5962129#1"/>
    </person>
    <person id="ped22" type="ped_pedestrian" depart="77.00">
        <walk edges="-578934691#1 578934691#1 -578934691#0 -578605862#2 641705146#1 641705146#0 642337372 436291064#1 436291062 436291031 641705064#0 641705063#3 -578942370 -578942371#2"/>
    </person>
    <person id="ped23" type="ped_pedestrian" depart="80.50">
        <walk edges="-578934700#1 419814433#1 -5962129#1 5955850#0 -5955850#1"/>
    </person>
    <person id="ped24" type="ped_pedestrian" depart="84.00">
        <walk edges="578934722 623099335 -578934723 -578934719 641705064#0 641705063#3 641705063#2 36054466#4"/>
    </person>
    <person id="ped25" type="ped_pedestrian" depart="87.50">
        <walk edges="36054466#5 36054466#4 36054466#3 -578942365 -578942367#2 -578942367#1"/>
    </person>
    <person id="ped26" type="ped_pedestrian" depart="91.00">
        <walk edges="-593766962#1 -593766960 gneE0 5962129#5 5962129#4 36054466#9 36054466#8 36054466#7 36054466#6 36054466#5 641705063#2 641705063#3 641705064#0 436291031 436291062 436291064#1 642337372"/>
    </person>
    <person id="ped27" type="ped_pedestrian" depart="94.50">
        <walk edges="578934724#2 -578934719 436291031 436291062 -578934717#0 578934717#1"/>
    </person>
    <person id="ped28" type="ped_pedestrian" depart="98.00">
        <walk edges="-578942334 578942335 -593766960 gneE0 5962129#5 5962129#4 5962129#3 5962129#2 -419814433#2 578942364"/>
    </person>
    <person id="ped29" type="ped_pedestrian" depart="101.50">
        <walk edges="-578942331 36054466#1 36054466#3 36054466#4 36054466#5 36054466#6 36054466#7"/>
    </person>
    <person id="ped30" type="ped_pedestrian" depart="105.00">
        <walk edges="89927838#3 36054466#0 36054466#1 36054466#3 36054466#4 641705063#2 641705063#3 641705064#0 -578934719 578934723"/>
    </person>
    <person id="ped31" type="ped_pedestrian" depart="108.50">
        <walk edges="578934699 578934700#1 419814433#1 -5962129#2 -5962129#3 36054466#9 36054466#8 36054466#7 36054466#6 36054466#5 641705063#1 578942355"/>
    </person>
    <person id="ped32" type="ped_pedestrian" depart="112.00">
        <walk edges="5955850#2 -5955850#1 6024091#2 6024091#3 578934716 -578934718#1 -578934718#2 -578934717#0 436291062 436291031 641705064#0 641705063#3 578942370"/>
    </person>
    <person id="ped33" type="ped_pedestrian" depart="115.50">
        <walk edges="-578942371#1 -578942370 641705063#3 -419814433#4"/>
    </person>
    <person id="ped34" type="ped_pedestrian" depart="119.00">
        <walk edges="-89927838#0 -89927838#3 36054466#0 36054466#1 36054466#3 36054466#4 36054466#5 36054466#6 36054466#7 36054466#8 36054466#9 5962129#4 5962129#5 -593766965"/>
    </person>
    <person id="ped35" type="ped_pedestrian" depart="122.50">
        <walk edges="-578942367#1 -578942367#2 -578942365 36054466#1 36054466#0 634644489 234953562 642337373"/>
    </person>
    <person id="ped36" type="ped_pedestrian" depart="126.00">
        <walk edges="6024091#3 578934716 -578934718#1 -578934718#2 -578934717#0 436291062 436291031 641705064#0 641705065 634644489 -89927838#3 -89927838#0"/>
    </person>
    <person id="ped37" type="ped_pedestrian" depart="129.50">
        <walk edges="578934726 419814433#2 419814433#1 419814433#0"/>
    </person>
    <person id="ped38" type="ped_pedestrian" depart="133.00">
        <walk edges="641705064#0 641705063#3 641705063#2 641705063#1 641705063#0 436291020#0 436291020#2 436291019"/>
    </person>
    <person id="ped39" type="ped_pedestrian" depart="136.50">
        <walk edges="-593766962#1 -593766960 gneE0 5962129#5 5962129#4 36054466#9 36054466#8 36054466#7 36054466#6 36054466#5 641705063#2 -578942370 578942369#0 578942369#1 -578942372#1"/>
    </person>
    <person id="ped40" type="ped_pedestrian" depart="140.00">
        <walk edges="578934700#1 419814433#1 -5962129#2 -5962129#3 -5962129#4 -593766965 gneE0 -593766960 -593766962#1"/>
    </person>
    <person id="ped41" type="ped_pedestrian" depart="143.50">
        <walk edges="578934712 6024091#3 578934716 -578934718#1 -578934718#2 -578934717#0 436291062 436291031 641705064#0 641705063#3 641705063#2 641705063#1 641705063#0"/>
    </person>
    <person id="ped42" type="ped_pedestrian" depart="147.00">
        <walk edges="419814433#1 -419814433#2 -419814433#4 641705063#3 -578942370"/>
    </person>
    <person id="ped43" type="ped_pedestrian" depart="150.50">
        <walk edges="gneE1 5962129#5 5962129#4 36054466#9 36054466#8 36054466#7 36054466#6 36054466#5 641705063#2 641705063#3 641705064#0 436291031 436291062 436291064#1 642337372 641705146#0 641705146#1 -578605862#2 -578605861#0 578605861#1"/>
    </person>
    <person id="ped44" type="ped_pedestrian" depart="154.00">
        <walk edges="-578934699 578934700#1 419814433#1 419814433#2 419814433#4 641705064#0 436291031 436291062 436291064#1 642337372 641705146#0 641705146#1 -578605862#2 -578605861#0 -578605861#2"/>
    </person>
    <person id="ped45" type="ped_pedestrian" depart="157.50">
        <walk edges="-578934709#1 -5955850#1 6024091#2 6024091#3 578934716 -578934718#1 -578934718#2 -578934717#0 436291062 436291031 578934719"/>
    </person>
    <person id="ped46" type="ped_pedestrian" depart="161.00">
        <walk edges="578942371#2 -578942370 641705063#3 641705064#0 436291031 436291010 436291011"/>
    </person>
    <person id="ped47" type="ped_pedestrian" depart="164.50">
        <walk edges="-578934689 641705146#0 642337372 436291064#1 436291062 436291031 641705064#0 641705063#3 641705063#2 36054466#5 36054466#6 36054466#7"/>
    </person>
    <person id="ped48" type="ped_pedestrian" depart="168.00">
        <walk edges="gneE1 5962129#5 5962129#4 36054466#9 36054466#8 36054466#7 36054466#6 36054466#5 641705063#2 641705063#3 641705064#0 436291031 436291062 436291064#1 642337372 641705146#0 578934689"/>
    </person>
    <person id="ped49" type="ped_pedestrian" depart="171.50">
        <walk edges="89922370#0 89922370#5 641705063#0 641705063#1 36054466#5 36054466#6 36054466#7 36054466#8 36054466#9 5962129#4"/>
    </person>
    <person id="ped50" type="ped_pedestrian" depart="175.00">
        <walk edges="-184711461 89922370#5 641705063#0 641705063#1 36054466#5 36054466#6 36054466#7 36054466#8 578942362"/>
    </person>
    <person id="ped51" type="ped_pedestrian" depart="178.50">
        <walk edges="578942354#1 -578942355 641705063#1 641705063#2 641705063#3 641705064#0 436291031 436291062 436291064#1 642337372 641705146#0 641705146#1 -578605862#2 578934691#0"/>
    </person>
    <person id="ped52" type="ped_pedestrian" depart="182.00">
        <walk edges="-593766962#1 -593766960 gneE0 5962129#5 5962129#4 5962129#3 5962129#2 419814433#2 -578934726 578934724#0 578934723"/>
    </person>
    <person id="ped53" type="ped_pedestrian" depart="185.50">
        <walk edges="-578934711 6024091#3 6024091#2 5955850#0 436291016#4 436291016#9 436291016#10"/>
    </person>
    <person id="ped54" type="ped_pedestrian" depart="189.00">
        <walk edges="436291018 641705063#0 641705063#1 641705063#2 641705063#3 641705064#0 436291031 436291062 436291064#1 642337372 642337374#1"/>
    </person>
    <person id="ped55" type="ped_pedestrian" depart="192.50">
        <walk edges="6024091#3 6024091#2 -5955850#0 5962129#0 5962129#2 5962129#3 5962129#4 5962129#5 gneE0 -593766960 -593766962#1"/>
    </person>
    <person id="ped56" type="ped_pedestrian" depart="196.00">
        <walk edges="578605861#0 -578605862#2 641705146#1 641705146#0 642337372 436291064#1 436291062 436291031 641705064#0 641705063#3 641705063#2 641705063#1 -578942355"/>
    </person>
    <person id="ped57" type="ped_pedestrian" depart="199.50">
        <walk edges="641705063#3 641705064#0 436291031 436291062 -578934717#0 -578934718#2 -578934718#1 578934716 6024091#3 6024091#2"/>
    </person>
    <person id="ped58" type="ped_pedestrian" depart="203.00">
        <walk edges="-5962129#3 -5962129#2 419814433#2 -578934726 578934724#0 578934723"/>
    </person>
    <person id="ped59" type="ped_pedestrian" depart="206.50">
        <walk edges="578934717#1 -578934717#0 436291062 436291031 -578934719 -578934723"/>
    </person>
    <person id="ped60" type="ped_pedestrian" depart="210.00">
        <walk edges="578942368#1 -578942367#2 -578942365 36054466#1 36054466#0 634644489 234953562 642337373 641705146#0 641705146#1 -578605862#2 578934691#0"/>
    </person>
    <person id="ped61" type="ped_pedestrian" depart="213.50">
        <walk edges="578942371#0 -578942365 36054466#1 36054466#0 634644489 234953562 642337373 641705146#0 641705146#1 -578605862#2 -578934691#0 578934690"/>
    </person>
    <person id="ped63" type="ped_pedestrian" depart="220.50">
        <walk edges="-419814433#0 -419814433#1 -419814433#2 -419814433#4 641705064#0 436291031 436291062 436291064#1 642337372 641705146#0"/>
    </person>
    <person id="ped64" type="ped_pedestrian" depart="224.00">
        <walk edges="6024091#3 6024091#2 5955850#0"/>
    </person>
    <person id="ped65" type="ped_pedestrian" depart="227.50">
        <walk edges="-5962129#4 36054466#9 36054466#8 36054466#7 36054466#6 36054466#5 641705063#2 641705063#3 641705064#0 436291031 436291062 436291064#1 642337372 641705146#0 641705146#1 -578605862#2"/>
    </person>
    <person id="ped66" type="ped_pedestrian" depart="231.00">
        <walk edges="6024091#3 6024091#5 642337372 642337374#1 642337374#0"/>
    </person>
    <person id="ped67" type="ped_pedestrian" depart="234.50">
        <walk edges="-578934692 642337374#1 642337372 436291064#1 436291062"/>
    </person>
    <person id="ped68" type="ped_pedestrian" depart="238.00">
        <walk edges="-578934690 -578934691#0 -578605862#2 641705146#1 641705146#0 642337373 234953562 634644489 36054466#0 36054466#1 -578942365 -578942367#2 578942368#1"/>
    </person>
    <person id="ped69" type="ped_pedestrian" depart="241.50">
        <walk edges="578942369#0 -578942370 641705063#3 641705064#0 436291031 436291062 -578934717#0 -578934717#1"/>
    </person>
    <person id="ped70" type="ped_pedestrian" depart="245.00">
        <walk edges="436291029 278328405#1 278328405#0 634644489 234953562 642337373 642337374#1 -578934692 578934692"/>
    </person>
    <person id="ped71" type="ped_pedestrian" depart="248.50">
        <walk edges="-593766962#1 -593766960 gneE0 5962129#5 5962129#4 5962129#3 5962129#2 5962129#0 -5955850#0 6024091#2"/>
    </person>
    <person id="ped72" type="ped_pedestrian" depart="252.00">
        <walk edges="436291011 234953562 634644489 36054466#0 36054466#1 -578942365 -578942367#2 -578942367#1"/>
    </person>
    <person id="ped73" type="ped_pedestrian" depart="255.50">
        <walk edges="578934691#0 -578605862#2 641705146#1 641705146#0 642337372 436291064#1 436291062 436291031 641705064#0 -419814433#4 578942364"/>
    </person>
    <person id="ped74" type="ped_pedestrian" depart="259.00">
        <walk edges="-578942365 36054466#1 36054466#0 634644489 -641705065"/>
    </person>
    <person id="ped75" type="ped_pedestrian" depart="262.50">
        <walk edges="gneE1 5962129#5 5962129#4 5962129#3 5962129#2 419814433#2 -578934726 578934724#2"/>
    </person>
    <person id="ped76" type="ped_pedestrian" depart="266.00">
        <walk edges="436291016#10 436291016#9 436291016#4 5955850#0 6024091#2 6024091#3 6024091#5 642337372 641705146#0 641705146#1 -578605862#2 578605862#0"/>
    </person>
    <person id="ped77" type="ped_pedestrian" depart="269.50">
        <walk edges="-578934712 6024091#3 578934716 -578934718#1 -578934718#2 -578934717#0 436291062 436291031 641705064#0 641705063#3 -578942370 -578942371#1 -578942371#0"/>
    </person>
    <person id="ped78" type="ped_pedestrian" depart="273.00">
        <walk edges="278328405#0 36054466#0 36054466#1 36054466#3 36054466#4 641705063#2 641705063#3 641705064#0 436291031 436291062 -578934717#0 -578934718#2 -578934718#1 578934716 6024091#3 -578934712 578934713#0"/>
    </person>
    <person id="ped79" type="ped_pedestrian" depart="276.50">
        <walk edges="-578942371#1 -578942370"/>
    </person>
    <person id="ped80" type="ped_pedestrian" depart="280.00">
        <walk edges="-578934691#0 -578605862#2 641705146#1 641705146#0 642337372 436291064#1 436291062 436291031 578934719"/>
    </person>
    <person id="ped81" type="ped_pedestrian" depart="283.50">
        <walk edges="-578942371#1 -578942370 641705063#2"/>
    </person>
    <person id="ped82" type="ped_pedestrian" depart="287.00">
        <walk edges="5962129#4 36054466#9 36054466#8 36054466#7 36054466#6 36054466#5 641705063#2 641705063#3 641705064#0 436291031 436291062 436291064#1 642337372 641705146#0 641705146#1 -578605862#2 -578934691#0"/>
    </person>
    <person id="ped83" type="ped_pedestrian" depart="290.50">
        <walk edges="-578942372#0 578942368#0 -578942367#2 -578942365 36054466#3 36054466#4 36054466#5 36054466#6 36054466#7 36054466#8 36054466#9 5962129#4 5962129#5 gneE0 -593766960 578942335"/>
    </person>
    <person id="ped84" type="ped_pedestrian" depart="294.00">
        <walk edges="-578942367#2 578942368#1 -578942371#1 -578942370 641705063#3 641705064#0 436291031 436291062 -578934717#0 -578934718#2 -578934718#0"/>
    </person>
    <person id="ped85" type="ped_pedestrian" depart="297.50">
        <walk edges="642337372 6024091#5 6024091#3 6024091#2 -5955850#1 578934709#1"/>
    </person>
    <person id="ped86" type="ped_pedestrian" depart="301.00">
        <walk edges="436291021#0 gneE0 5962129#5 5962129#4 36054466#9 36054466#8 36054466#7 36054466#6 36054466#5 641705063#2 -578942370 578942371#1"/>
    </person>
    <person id="ped87" type="ped_pedestrian" depart="304.50">
        <walk edges="578942372#2 578942369#1 578942369#0 -578942370 641705063#2 36054466#5 36054466#6 36054466#7 36054466#8 36054466#9 5962129#4 -578942358"/>
    </person>
    <person id="ped88" type="ped_pedestrian" depart="308.00">
        <walk edges="-578934700#1 419814433#1 419814433#2 419814433#4 641705064#0 436291031 436291016#0"/>
    </person>
    <person id="ped89" type="ped_pedestrian" depart="311.50">
        <walk edges="436291011 234953562 634644489 278328405#0 436291019 436291020#2"/>
    </person>
    <person id="ped90" type="ped_pedestrian" depart="315.00">
        <walk edges="578942364 -419814433#4 641705063#3 641705063#2 641705063#1 -578942355 578942354#0"/>
    </person>
    <person id="ped91" type="ped_pedestrian" depart="318.50">
        <walk edges="89927838#0 89927838#3 36054466#0 36054466#1 36054466#3 36054466#4 36054466#5 36054466#6 36054466#7 36054466#8 36054466#9 -5962129#3 -5962129#2 419814433#1 -578934700#1"/>
    </person>
    <person id="ped92" type="ped_pedestrian" depart="322.00">
        <walk edges="419814433#1 -5962129#2 -5962129#3 36054466#9 36054466#8 36054466#7 36054466#6 36054466#5 641705063#1 641705063#0 436291020#0 436291020#2 436291019 278328405#1"/>
    </person>
    <person id="ped93" type="ped_pedestrian" depart="325.50">
        <walk edges="5962129#4 36054466#9 36054466#8 36054466#7 36054466#6 36054466#5 641705063#2 -578942370 578942369#0 -578942367#0 -578942372#2"/>
    </person>
    <person id="ped94" type="ped_pedestrian" depart="329.00">
        <walk edges="-578942358 5962129#4 -5962129#3 -5962129#2 -5962129#1 436291016#4 436291016#9"/>
    </person>
    <person id="ped95" type="ped_pedestrian" depart="332.50">
        <walk edges="436291011 436291010 436291062 -578934717#0 -578934718#2 -578934718#1 578934716 6024091#3 6024091#2 -5955850#1"/>
    </person>
    <person id="ped96" type="ped_pedestrian" depart="336.00">
        <walk edges="-578942372#2 -578942367#0 578942369#0 -578942370 641705063#3 641705065"/>
    </person>
    <person id="ped97" type="ped_pedestrian" depart="339.50">
        <walk edges="436291016#4 -5962129#1 -5962129#2 -5962129#3 5962129#4"/>
    </person>
    <person id="ped98" type="ped_pedestrian" depart="343.00">
        <walk edges="578934692 -578934692 642337374#1 641705146#0 641705146#1 -578605862#2 -578605862#0"/>
    </person>
    <person id="ped99" type="ped_pedestrian" depart="346.50">
        <walk edges="gneE1 -593766965 -5962129#4 -5962129#3 -5962129#2 -5962129#1 5955850#0 5955850#1"/>
    </person>
    <person id="ped100" type="ped_pedestrian" depart="350.00">
        <walk edges="642751754#1 642751754#0 278328405#0 634644489 234953562 642337373 641705146#0"/>
    </person>
    <person id="ped101" type="ped_pedestrian" depart="353.50">
        <walk edges="5962129#2 5962129#3 36054466#9 36054466#8 36054466#7 36054466#6 36054466#5 36054466#4 36054466#3 36054466#1 -578942331"/>
    </person>
    <person id="ped102" type="ped_pedestrian" depart="357.00">
        <walk edges="436291062 436291031 641705064#0 641705063#3 -578942370 -578942371#1 578942368#1 -578942367#2"/>
    </person>
    <person id="ped103" type="ped_pedestrian" depart="360.50">
        <walk edges="419814433#1 419814433#2 419814433#4 641705064#0 436291031 436291062 436291064#1 642337372 641705146#0 641705146#1 -578605862#2"/>
    </person>
    <person id="ped104" type="ped_pedestrian" depart="364.00">
        <walk edges="36054466#7 36054466#6 36054466#5 36054466#4 36054466#3 36054466#1 36054466#0 89927838#3"/>
    </person>
    <person id="ped105" type="ped_pedestrian" depart="367.50">
        <walk edges="-593766962#1 -593766960 gneE0 5962129#5 5962129#4 36054466#9 36054466#8 36054466#7 36054466#6 36054466#5 641705063#2 -578942370 578942371#1"/>
    </person>
    <person id="ped106" type="ped_pedestrian" depart="371.00">
        <walk edges="436291019 278328405#0 634644489 234953562 436291011"/>
    </person>
    <person id="ped107" type="ped_pedestrian" depart="374.50">
        <walk edges="642361032 436291064#1 436291062 436291031 641705064#0 641705063#3 641705063#2 36054466#5 36054466#6 36054466#7 36054466#8 36054466#9 5962129#4 5962129#5 gneE1"/>
    </person>
    <person id="ped108" type="ped_pedestrian" depart="378.00">
        <walk edges="578934699 578934700#1 419814433#1 5962129#2 578942362"/>
    </person>
    <person id="ped109" type="ped_pedestrian" depart="381.50">
        <walk edges="-578934723 578934724#0 -578934726 419814433#2 -5962129#2"/>
    </person>
    <person id="ped110" type="ped_pedestrian" depart="385.00">
        <walk edges="642751754#1 642751754#0 436291019 436291020#2 436291020#0 641705063#0 641705063#1 641705063#2 641705063#3 641705064#0 436291031 436291062 -578934717#0 -578934718#2 -578934718#1 578934716 578934711"/>
    </person>
    <person id="ped111" type="ped_pedestrian" depart="388.50">
        <walk edges="578934691#1 -578934691#0 -578605862#2 641705146#1 641705146#0 642337373 234953562 634644489 36054466#0 36054466#1 -578942365 578942367#2"/>
    </person>
    <person id="ped112" type="ped_pedestrian" depart="392.00">
        <walk edges="-578605862#2 641705146#1 641705146#0 642337372 6024091#5 6024091#3 578934712"/>
    </person>
    <person id="ped113" type="ped_pedestrian" depart="395.50">
        <walk edges="578605861#0 -578605862#2 641705146#1 641705146#0 642337372 436291064#1 436291062 436291031 641705064#0 -419814433#4 -419814433#2 5962129#2"/>
    </person>
    <person id="ped114" type="ped_pedestrian" depart="399.00">
        <walk edges="-578934726 419814433#4 641705063#3 641705063#2 641705063#1 641705063#0 436291020#0 436291020#2 436291019 642751754#0"/>
    </person>
    <person id="ped115" type="ped_pedestrian" depart="402.50">
        <walk edges="-578934691#1 578934691#1 -578934691#0 -578605862#2 641705146#1 641705146#0 642337372 436291064#1 436291062 436291031 641705064#0 641705063#3 641705063#2 36054466#5 36054466#6 36054466#7 36054466#8 36054466#9 5962129#4 5962129#5 -578942357"/>
    </person>
    <person id="ped116" type="ped_pedestrian" depart="406.00">
        <walk edges="578934713#1 -578934712 6024091#3 578934716 -578934718#1 -578934718#2 -578934717#0 436291062 436291031 641705064#0 641705063#3 641705063#2 641705063#1 -578942355 578942354#0"/>
    </person>
    <person id="ped117" type="ped_pedestrian" depart="409.50">
        <walk edges="-578942371#2 -578942370 641705063#3 641705064#0 436291031 436291062 -578934717#0 -578934718#2 -578934718#1 578934716 6024091#3 -578934712"/>
    </person>
    <person id="ped118" type="ped_pedestrian" depart="413.00">
        <walk edges="634644489 36054466#0 36054466#1 -578942365 -578942367#2 578942368#0 -578942372#1"/>
    </person>
    <person id="ped119" type="ped_pedestrian" depart="416.50">
        <walk edges="578934713#1 -578934712 6024091#3 578934716 578934718#1"/>
    </person>
    <person id="ped120" type="ped_pedestrian" depart="420.00">
        <walk edges="436291011 436291010 436291062 -578934717#0 -578934718#2 -578934718#1 578934716 6024091#3 578934712"/>
    </person>
    <person id="ped121" type="ped_pedestrian" depart="423.50">
        <walk edges="578605862#2 641705146#1 641705146#0 642337372"/>
    </person>
    <person id="ped122" type="ped_pedestrian" depart="427.00">
        <walk edges="-578942367#0 578942369#0 -578942370 641705063#2 36054466#5 578942361#0 578942361#1"/>
    </person>
    <person id="ped123" type="ped_pedestrian" depart="430.50">
        <walk edges="-578942372#0 578942368#0 578942368#1 -578942371#1 -578942370 641705063#3 -419814433#4 -419814433#2 419814433#1 419814433#0"/>
    </person>
    <person id="ped124" type="ped_pedestrian" depart="434.00">
        <walk edges="578942335 -593766960 gneE0 -593766965 -5962129#4 -5962129#3"/>
    </person>
    <person id="ped125" type="ped_pedestrian" depart="437.50">
        <walk edges="-89927838#0 -89927838#3 36054466#0 36054466#1 -578942365 578942367#2"/>
    </person>
    <person id="ped126" type="ped_pedestrian" depart="441.00">
        <walk edges="-578934691#0 -578605862#2 641705146#1 641705146#0 642337373 234953562 634644489 278328405#0 436291019"/>
    </person>
    <person id="ped127" type="ped_pedestrian" depart="444.50">
        <walk edges="gneE1"/>
    </person>
    <person id="ped128" type="ped_pedestrian" depart="448.00">
        <walk edges="-578934691#0 -578605862#2 641705146#1 641705146#0 642337373 234953562 634644489 36054466#0 36054466#1 -578942365 -578942367#2"/>
    </person>
    <person id="ped129" type="ped_pedestrian" depart="451.50">
        <walk edges="-593766962#1 -593766960 gneE0 5962129#5 5962129#4 36054466#9 36054466#8 36054466#7 36054466#6 36054466#5 641705063#2 641705063#3 641705064#0 436291031 436291062 436291064#1 642337372 641705146#0 641705146#1"/>
    </person>
    <person id="ped130" type="ped_pedestrian" depart="455.00">
        <walk edges="6024091#5"/>
    </person>
    <person id="ped131" type="ped_pedestrian" depart="458.50">
        <walk edges="36054466#5 641705063#2 641705063#3 419814433#4 -578934726"/>
    </person>
    <person id="ped132" type="ped_pedestrian" depart="462.00">
        <walk edges="5955850#1 5955850#0 5962129#0 5962129#2 5962129#3 5962129#4 -578942358 578942360#1"/>
    </person>
    <person id="ped133" type="ped_pedestrian" depart="465.50">
        <walk edges="578934718#0 -578934718#2 -578934717#0 436291062 436291031 641705064#0 641705063#3 641705063#2 36054466#4 36054466#3 36054466#1 36054466#0 89927838#3"/>
    </person>
    <person id="ped134" type="ped_pedestrian" depart="469.00">
        <walk edges="578934726 419814433#4 641705063#3 641705063#2 36054466#4 36054466#3 36054466#1 36054466#0 89927838#3 -184711460"/>
    </person>
    <person id="ped135" type="ped_pedestrian" depart="472.50">
        <walk edges="593766960 gneE0 -593766965 -5962129#4 -5962129#3"/>
    </person>
    <person id="ped136" type="ped_pedestrian" depart="476.00">
        <walk edges="578942334 578942335 -593766960 gneE0 5962129#5 5962129#4 36054466#9 36054466#8 36054466#7 36054466#6 36054466#5 641705063#2 641705063#3 641705064#0 436291031 436291062 436291064#1 642337372"/>
    </person>
    <person id="ped137" type="ped_pedestrian" depart="479.50">
        <walk edges="-578934718#0 578934716 -578934711"/>
    </person>
    <person id="ped138" type="ped_pedestrian" depart="483.00">
        <walk edges="-578934709#1 5955850#1 5955850#0 436291016#4 578934698"/>
    </person>
    <person id="ped139" type="ped_pedestrian" depart="486.50">
        <walk edges="-593766965 5962129#5 5962129#4 36054466#9 36054466#8 36054466#7 36054466#6 36054466#5 641705063#2 641705063#3 641705064#0 436291031 436291062 578934717#0"/>
    </person>
    <person id="ped140" type="ped_pedestrian" depart="490.00">
        <walk edges="578942362 36054466#8 36054466#7 36054466#6 36054466#5 641705063#2 -578942370 578942369#0 -578942367#0"/>
    </person>
    <person id="ped141" type="ped_pedestrian" depart="493.50">