<?xml version="1.0" encoding="UTF-8"?>

<!-- generated on 04/27/20 12:17:30 by Eclipse SUMO netedit Version 1.3.1
<configuration xmlns:xsi="http://www.w3.org/2001/XMLSchema-instance" xsi:noNamespaceSchemaLocation="http://sumo.dlr.de/xsd/netconvertConfiguration.xsd">

    <input>
        <sumo-net-file value=".\osm\osm.net.xml"/>
    </input>

    <output>
        <output-file value=".\osm\osm.net.xml"/>
        <output.street-names value="true"/>
    </output>

    <processing>
        <geometry.max-grade.fix value="false"/>
        <offset.disable-normalization value="true"/>
        <opposites.guess.fix-lengths value="true"/>
        <lefthand value="false"/>
    </processing>

    <junctions>
        <no-internal-links value="false"/>
        <no-turnarounds value="true"/>
        <junctions.corner-detail value="5"/>
        <junctions.limit-turn-speed value="5.5"/>
        <rectangular-lane-cut value="false"/>
    </junctions>

    <pedestrian>
        <walkingareas value="true"/>
    </pedestrian>

    <netedit>
        <additional-files value="C:\Users\KratosUC\PycharmProjects\SUMO_SanDiego_Pilot1\source\osm\e2.add.xml"/>
    </netedit>

</configuration>
-->

<net version="1.3" junctionCornerDetail="5" walkingareas="true" limitTurnSpeed="5.50" xmlns:xsi="http://www.w3.org/2001/XMLSchema-instance" xsi:noNamespaceSchemaLocation="http://sumo.dlr.de/xsd/net_file.xsd">

    <location netOffset="-483980.02,-3619901.67" convBoundary="0.00,0.00,1348.00,695.31" origBoundary="-117.170955,32.716778,-117.156568,32.723050" projParameter="+proj=utm +zone=11 +ellps=WGS84 +datum=WGS84 +units=m +no_defs"/>

    <type id="cycleway.lane" allow="bicycle" bikeLaneWidth="1.00"/>
    <type id="cycleway.opposite_lane" allow="bicycle" bikeLaneWidth="1.00"/>
    <type id="cycleway.opposite_track" allow="bicycle" bikeLaneWidth="1.50"/>
    <type id="cycleway.track" allow="bicycle" bikeLaneWidth="1.50"/>
    <type id="highway.bridleway" priority="1" numLanes="1" speed="2.78" allow="pedestrian" oneway="1" width="2.00"/>
    <type id="highway.bus_guideway" priority="1" numLanes="1" speed="13.89" allow="bus" oneway="1"/>
    <type id="highway.cycleway" priority="1" numLanes="1" speed="8.33" allow="bicycle" oneway="0" width="1.00"/>
    <type id="highway.footway" priority="1" numLanes="1" speed="2.78" allow="pedestrian" oneway="1" width="2.00"/>
    <type id="highway.ford" priority="1" numLanes="1" speed="2.78" allow="army" oneway="0"/>
    <type id="highway.living_street" priority="2" numLanes="1" speed="2.78" disallow="tram rail_urban rail rail_electric ship" oneway="0"/>
    <type id="highway.motorway" priority="14" numLanes="2" speed="27.78" allow="private emergency authority army vip passenger hov taxi bus coach delivery truck trailer motorcycle evehicle custom1 custom2" oneway="1"/>
    <type id="highway.motorway_link" priority="9" numLanes="1" speed="16.67" allow="private emergency authority army vip passenger hov taxi bus coach delivery truck trailer motorcycle evehicle custom1 custom2" oneway="1"/>
    <type id="highway.path" priority="1" numLanes="1" speed="2.78" allow="pedestrian bicycle" oneway="1" width="2.00"/>
    <type id="highway.pedestrian" priority="1" numLanes="1" speed="2.78" allow="pedestrian" oneway="1" width="2.00"/>
    <type id="highway.primary" priority="12" numLanes="2" speed="13.89" disallow="pedestrian tram rail_urban rail rail_electric ship" oneway="0" sidewalkWidth="3.00"/>
    <type id="highway.primary_link" priority="7" numLanes="1" speed="13.89" disallow="pedestrian tram rail_urban rail rail_electric ship" oneway="0" sidewalkWidth="3.00"/>
    <type id="highway.raceway" priority="15" numLanes="2" speed="83.33" allow="vip" oneway="0"/>
    <type id="highway.residential" priority="3" numLanes="1" speed="13.89" disallow="pedestrian tram rail_urban rail rail_electric ship" oneway="0" sidewalkWidth="2.00"/>
    <type id="highway.secondary" priority="11" numLanes="2" speed="13.89" disallow="pedestrian tram rail_urban rail rail_electric ship" oneway="0" sidewalkWidth="3.00"/>
    <type id="highway.secondary_link" priority="6" numLanes="1" speed="13.89" disallow="pedestrian tram rail_urban rail rail_electric ship" oneway="0" sidewalkWidth="3.00"/>
    <type id="highway.service" priority="1" numLanes="1" speed="5.56" allow="pedestrian delivery bicycle" oneway="0"/>
    <type id="highway.stairs" priority="1" numLanes="1" speed="1.39" allow="pedestrian" oneway="1" width="2.00"/>
    <type id="highway.step" priority="1" numLanes="1" speed="1.39" allow="pedestrian" oneway="1" width="2.00"/>
    <type id="highway.steps" priority="1" numLanes="1" speed="1.39" allow="pedestrian" oneway="1" width="2.00"/>
    <type id="highway.tertiary" priority="10" numLanes="1" speed="13.89" disallow="pedestrian tram rail_urban rail rail_electric ship" oneway="0" sidewalkWidth="3.00"/>
    <type id="highway.tertiary_link" priority="5" numLanes="1" speed="13.89" disallow="pedestrian tram rail_urban rail rail_electric ship" oneway="0" sidewalkWidth="2.00"/>
    <type id="highway.track" priority="1" numLanes="1" speed="5.56" disallow="tram rail_urban rail rail_electric ship" oneway="0"/>
    <type id="highway.trunk" priority="13" numLanes="2" speed="13.89" disallow="pedestrian bicycle tram rail_urban rail rail_electric ship" oneway="0"/>
    <type id="highway.trunk_link" priority="8" numLanes="1" speed="13.89" disallow="pedestrian bicycle tram rail_urban rail rail_electric ship" oneway="0"/>
    <type id="highway.unclassified" priority="4" numLanes="1" speed="13.89" disallow="pedestrian tram rail_urban rail rail_electric ship" oneway="0" sidewalkWidth="2.00"/>
    <type id="highway.unsurfaced" priority="1" numLanes="1" speed="8.33" disallow="tram rail_urban rail rail_electric ship" oneway="0"/>
    <type id="railway.light_rail" priority="19" numLanes="1" speed="27.78" allow="rail_urban" oneway="1"/>
    <type id="railway.preserved" priority="16" numLanes="1" speed="27.78" allow="rail" oneway="1"/>
    <type id="railway.rail" priority="20" numLanes="1" speed="83.33" allow="rail rail_electric" oneway="1"/>
    <type id="railway.subway" priority="18" numLanes="1" speed="27.78" allow="rail_urban" oneway="1"/>
    <type id="railway.tram" priority="17" numLanes="1" speed="13.89" allow="tram" oneway="1"/>

    <edge id=":1458207133_w0" function="walkingarea">
        <lane id=":1458207133_w0_0" index="0" allow="pedestrian" speed="1.00" length="1.41" width="2.00" shape="929.46,180.39 929.50,178.39 929.50,178.39 927.50,178.35 928.82,180.33 928.32,180.16 927.94,179.89 927.68,179.50 927.54,178.99"/>
    </edge>
    <edge id=":1458207150_w0" function="walkingarea">
        <lane id=":1458207150_w0_0" index="0" allow="pedestrian" speed="1.00" length="1.41" width="2.00" shape="996.69,124.96 996.65,126.96 996.65,126.96 998.65,127.00 997.33,125.02 997.83,125.19 998.21,125.46 998.47,125.85 998.61,126.36"/>
    </edge>
    <edge id=":1945592456_0" function="internal">
        <lane id=":1945592456_0_0" index="0" allow="pedestrian delivery bicycle" speed="3.65" length="4.67" shape="1000.34,307.81 1001.54,308.61 1001.94,309.41 1001.54,310.21 1000.34,311.01"/>
    </edge>
    <edge id=":1952180680_0" function="internal">
        <lane id=":1952180680_0_0" index="0" disallow="pedestrian tram rail_urban rail rail_electric rail_fast ship" speed="6.04" length="7.60" shape="914.79,172.81 917.48,172.62 919.40,172.04 920.56,171.08 920.95,169.74"/>
    </edge>
    <edge id=":1952180680_1" function="internal">
        <lane id=":1952180680_1_0" index="0" allow="pedestrian delivery bicycle" speed="6.01" length="7.60" shape="920.89,179.14 920.52,177.77 919.38,176.79 917.47,176.21 914.80,176.01"/>
    </edge>
    <edge id=":1952180680_2" function="internal">
        <lane id=":1952180680_2_0" index="0" disallow="pedestrian tram rail_urban rail rail_electric rail_fast ship" speed="13.89" length="9.40" shape="920.89,179.14 920.95,169.74"/>
        <lane id=":1952180680_2_1" index="1" disallow="pedestrian tram rail_urban rail rail_electric rail_fast ship" speed="13.89" length="9.40" shape="924.09,179.16 924.15,169.76"/>
    </edge>
    <edge id=":1952180680_w0" function="walkingarea">
        <lane id=":1952180680_w0_0" index="0" allow="pedestrian" speed="1.00" length="5.87" width="3.20" shape="919.35,169.73 916.35,169.71 914.79,171.21 914.79,174.41 914.79,174.41 914.80,177.61 916.29,179.11 919.29,179.13"/>
    </edge>
    <edge id=":1952180683_0" function="internal">
        <lane id=":1952180683_0_0" index="0" disallow="pedestrian tram rail_urban rail rail_electric rail_fast ship" speed="13.89" length="0.31" shape="919.91,326.48 919.91,326.18"/>
        <lane id=":1952180683_0_1" index="1" disallow="pedestrian tram rail_urban rail rail_electric rail_fast ship" speed="13.89" length="0.31" shape="923.11,326.49 923.11,326.16"/>
    </edge>
    <edge id=":1952180683_w0" function="walkingarea">
        <lane id=":1952180683_w0_0" index="0" allow="pedestrian" speed="1.00" length="1.69" width="4.00" shape="918.34,330.20 918.31,326.20 915.31,326.22 915.31,326.46 918.31,326.47"/>
    </edge>
    <edge id=":1952180685_0" function="internal">
        <lane id=":1952180685_0_0" index="0" disallow="pedestrian tram rail_urban rail rail_electric rail_fast ship" speed="6.05" length="7.64" shape="990.49,353.08 990.27,350.38 989.67,348.46 988.70,347.31 987.35,346.93"/>
    </edge>
    <edge id=":1952180685_1" function="internal">
        <lane id=":1952180685_1_0" index="0" allow="pedestrian delivery bicycle" speed="6.00" length="7.62" shape="996.81,346.86 995.44,347.26 994.47,348.41 993.92,350.33 993.78,353.01"/>
    </edge>
    <edge id=":1952180685_2" function="internal">
        <lane id=":1952180685_2_0" index="0" disallow="pedestrian tram rail_urban rail rail_electric rail_fast ship" speed="13.89" length="9.46" shape="996.81,346.86 987.35,346.93"/>
        <lane id=":1952180685_2_1" index="1" disallow="pedestrian tram rail_urban rail rail_electric rail_fast ship" speed="13.89" length="9.46" shape="996.79,343.66 987.33,343.73"/>
    </edge>
    <edge id=":1952180685_w0" function="walkingarea">
        <lane id=":1952180685_w0_0" index="0" allow="pedestrian" speed="1.00" length="5.93" width="3.20" shape="987.36,348.53 987.38,351.53 988.89,353.10 992.09,353.07 992.18,353.05 995.38,352.97 996.85,351.46 996.83,348.46"/>
    </edge>
    <edge id=":2654205181_0" function="internal">
        <lane id=":2654205181_0_0" index="0" disallow="pedestrian tram rail_urban rail rail_electric rail_fast ship" speed="3.65" length="4.67" shape="753.08,555.61 752.29,556.82 751.49,557.22 750.69,556.82 749.88,555.63"/>
    </edge>
    <edge id=":2654205181_w0" function="walkingarea">
        <lane id=":2654205181_w0_0" index="0" allow="pedestrian" speed="1.00" length="9.40" width="3.00" shape="748.28,555.64 745.28,555.65 757.68,555.59 754.68,555.60"/>
    </edge>
    <edge id=":4341675279_0" function="internal">
        <lane id=":4341675279_0_0" index="0" disallow="pedestrian tram rail_urban rail rail_electric rail_fast ship" speed="13.89" length="8.21" shape="670.87,202.26 671.11,204.66 671.65,206.26 672.19,207.87 672.43,210.27"/>
        <lane id=":4341675279_0_1" index="1" disallow="pedestrian tram rail_urban rail rail_electric rail_fast ship" speed="13.89" length="8.21" shape="670.87,202.26 670.61,204.66 670.05,206.25 669.49,207.85 669.23,210.25"/>
        <lane id=":4341675279_0_2" index="2" disallow="pedestrian tram rail_urban rail rail_electric rail_fast ship" speed="13.89" length="8.21" shape="667.67,202.24 667.41,204.64 666.85,206.24 666.29,207.84 666.03,210.24"/>
        <lane id=":4341675279_0_3" index="3" disallow="pedestrian tram rail_urban rail rail_electric rail_fast ship" speed="13.89" length="8.21" shape="664.47,202.22 664.21,204.62 663.65,206.22 663.09,207.82 662.83,210.22"/>
    </edge>
    <edge id=":4341675279_w0" function="walkingarea">
        <lane id=":4341675279_w0_0" index="0" allow="pedestrian" speed="1.00" length="8.15" width="3.00" shape="674.03,210.27 677.03,210.29 675.47,202.28 672.47,202.27 672.58,203.99 672.87,205.25 673.25,206.27 673.63,207.29 673.92,208.55"/>
    </edge>
    <edge id=":4341675280_0" function="internal">
        <lane id=":4341675280_0_0" index="0" disallow="pedestrian tram rail_urban rail rail_electric rail_fast ship" speed="13.89" length="8.40" shape="958.81,226.87 961.27,226.38 962.82,225.29 964.36,224.20 966.83,223.71"/>
        <lane id=":4341675280_0_1" index="1" disallow="pedestrian tram rail_urban rail rail_electric rail_fast ship" speed="13.89" length="8.40" shape="958.81,226.87 966.81,226.91"/>
        <lane id=":4341675280_0_2" index="2" disallow="pedestrian tram rail_urban rail rail_electric rail_fast ship" speed="13.89" length="8.40" shape="958.79,230.07 966.79,230.11"/>
        <lane id=":4341675280_0_3" index="3" disallow="pedestrian tram rail_urban rail rail_electric rail_fast ship" speed="13.89" length="8.40" shape="958.79,230.07 961.25,230.58 962.79,231.69 964.32,232.80 966.78,233.31"/>
    </edge>
    <edge id=":4341675280_w0" function="walkingarea">
        <lane id=":4341675280_w0_0" index="0" allow="pedestrian" speed="1.00" length="8.62" width="3.00" shape="966.83,222.11 966.85,219.11 958.83,222.27 958.82,225.27 960.61,225.04 961.85,224.46 962.83,223.69 963.80,222.92 965.04,222.34"/>
    </edge>
    <edge id=":4341675282_0" function="internal">
        <lane id=":4341675282_0_0" index="0" disallow="pedestrian tram rail_urban rail rail_electric rail_fast ship" speed="13.89" length="8.61" shape="920.32,265.13 919.85,262.66 918.77,261.12 917.68,259.57 917.20,257.11"/>
        <lane id=":4341675282_0_1" index="1" disallow="pedestrian tram rail_urban rail rail_electric rail_fast ship" speed="13.89" length="8.61" shape="923.52,265.16 923.05,262.70 921.97,261.15 920.88,259.60 920.40,257.13"/>
        <lane id=":4341675282_0_2" index="2" disallow="pedestrian tram rail_urban rail rail_electric rail_fast ship" speed="13.89" length="8.61" shape="923.52,265.16 923.60,257.15"/>
        <lane id=":4341675282_0_3" index="3" disallow="pedestrian tram rail_urban rail rail_electric rail_fast ship" speed="13.89" length="8.61" shape="923.52,265.16 924.05,262.70 925.17,261.17 926.28,259.63 926.80,257.17"/>
    </edge>
    <edge id=":4341675282_w0" function="walkingarea">
        <lane id=":4341675282_w0_0" index="0" allow="pedestrian" speed="1.00" length="8.59" width="3.00" shape="915.60,257.10 912.60,257.08 915.72,265.07 918.72,265.11 918.51,263.32 917.93,262.08 917.17,261.10 916.41,260.13 915.82,258.89"/>
    </edge>
    <edge id=":4341675284_0" function="internal">
        <lane id=":4341675284_0_0" index="0" disallow="pedestrian tram rail_urban rail rail_electric rail_fast ship" speed="13.89" length="8.21" shape="669.63,297.99 669.84,300.39 670.37,302.00 670.89,303.61 671.11,306.01"/>
        <lane id=":4341675284_0_1" index="1" disallow="pedestrian tram rail_urban rail rail_electric rail_fast ship" speed="13.89" length="8.21" shape="669.63,297.99 669.34,300.38 668.77,301.97 668.19,303.57 667.91,305.96"/>
        <lane id=":4341675284_0_2" index="2" disallow="pedestrian tram rail_urban rail rail_electric rail_fast ship" speed="13.89" length="8.21" shape="666.43,297.94 666.15,300.33 665.57,301.92 664.99,303.52 664.71,305.91"/>
        <lane id=":4341675284_0_3" index="3" disallow="pedestrian tram rail_urban rail rail_electric rail_fast ship" speed="13.89" length="8.21" shape="663.23,297.89 662.95,300.28 662.37,301.87 661.80,303.47 661.51,305.86"/>
    </edge>
    <edge id=":4341675284_w0" function="walkingarea">
        <lane id=":4341675284_w0_0" index="0" allow="pedestrian" speed="1.00" length="8.16" width="3.00" shape="672.71,306.04 675.71,306.08 674.23,298.06 671.23,298.01 671.32,299.74 671.60,301.00 671.97,302.02 672.34,303.05 672.61,304.31"/>
    </edge>
    <edge id=":4341675285_0" function="internal">
        <lane id=":4341675285_0_0" index="0" disallow="pedestrian tram rail_urban rail rail_electric rail_fast ship" speed="13.89" length="8.61" shape="644.58,346.45 642.12,346.94 640.57,348.03 639.03,349.13 636.57,349.62"/>
        <lane id=":4341675285_0_1" index="1" disallow="pedestrian tram rail_urban rail rail_electric rail_fast ship" speed="13.89" length="8.61" shape="644.59,343.25 642.13,343.74 640.59,344.83 639.04,345.93 636.58,346.42"/>
        <lane id=":4341675285_0_2" index="2" disallow="pedestrian tram rail_urban rail rail_electric rail_fast ship" speed="13.89" length="8.61" shape="644.59,343.25 636.59,343.22"/>
        <lane id=":4341675285_0_3" index="3" disallow="pedestrian tram rail_urban rail rail_electric rail_fast ship" speed="13.89" length="8.61" shape="644.59,343.25 642.13,342.74 640.60,341.63 639.06,340.53 636.60,340.02"/>
    </edge>
    <edge id=":4341675285_w0" function="walkingarea">
        <lane id=":4341675285_w0_0" index="0" allow="pedestrian" speed="1.00" length="8.61" width="3.00" shape="636.57,351.22 636.56,354.22 644.56,351.05 644.57,348.05 642.78,348.28 641.54,348.86 640.57,349.63 639.60,350.40 638.36,350.99"/>
    </edge>
    <edge id=":4341675286_0" function="internal">
        <lane id=":4341675286_0_0" index="0" disallow="pedestrian tram rail_urban rail rail_electric rail_fast ship" speed="13.89" length="8.78" shape="712.24,346.67 709.73,347.15 708.15,348.23 706.57,349.33 704.06,349.82"/>
        <lane id=":4341675286_0_1" index="1" disallow="pedestrian tram rail_urban rail rail_electric rail_fast ship" speed="13.89" length="8.78" shape="712.27,343.47 709.76,343.95 708.17,345.03 706.59,346.13 704.07,346.62"/>
        <lane id=":4341675286_0_2" index="2" disallow="pedestrian tram rail_urban rail rail_electric rail_fast ship" speed="13.89" length="8.78" shape="712.27,343.47 704.08,343.42"/>
        <lane id=":4341675286_0_3" index="3" disallow="pedestrian tram rail_urban rail rail_electric rail_fast ship" speed="13.89" length="8.78" shape="712.27,343.47 709.75,342.95 708.18,341.83 706.60,340.73 704.09,340.22"/>
    </edge>
    <edge id=":4341675286_w0" function="walkingarea">
        <lane id=":4341675286_w0_0" index="0" allow="pedestrian" speed="1.00" length="8.74" width="3.00" shape="704.06,351.42 704.05,354.42 712.19,351.27 712.22,348.27 710.40,348.49 709.13,349.07 708.14,349.83 707.15,350.60 705.88,351.19"/>
    </edge>
    <edge id=":4341675287_0" function="internal">
        <lane id=":4341675287_0_0" index="0" disallow="pedestrian tram rail_urban rail rail_electric rail_fast ship" speed="13.89" length="8.60" shape="919.63,375.58 919.15,373.11 918.06,371.57 916.97,370.02 916.49,367.56"/>
        <lane id=":4341675287_0_1" index="1" disallow="pedestrian tram rail_urban rail rail_electric rail_fast ship" speed="13.89" length="8.60" shape="922.83,375.60 922.35,373.13 921.26,371.59 920.17,370.04 919.69,367.58"/>
        <lane id=":4341675287_0_2" index="2" disallow="pedestrian tram rail_urban rail rail_electric rail_fast ship" speed="13.89" length="8.60" shape="922.83,375.60 922.89,367.60"/>
        <lane id=":4341675287_0_3" index="3" disallow="pedestrian tram rail_urban rail rail_electric rail_fast ship" speed="13.89" length="8.60" shape="922.83,375.60 923.35,373.14 924.46,371.61 925.57,370.08 926.09,367.62"/>
    </edge>
    <edge id=":4341675287_w0" function="walkingarea">
        <lane id=":4341675287_w0_0" index="0" allow="pedestrian" speed="1.00" length="8.62" width="3.00" shape="914.89,367.55 911.89,367.53 915.03,375.55 918.03,375.57 917.81,373.78 917.22,372.53 916.46,371.56 915.70,370.58 915.11,369.34"/>
    </edge>
    <edge id=":49047359_0" function="internal">
        <lane id=":49047359_0_0" index="0" disallow="pedestrian tram rail_urban rail rail_electric rail_fast ship" speed="13.89" length="12.58" shape="585.10,458.16 572.52,458.12"/>
    </edge>
    <edge id=":49047359_1" function="internal">
        <lane id=":49047359_1_0" index="0" disallow="pedestrian tram rail_urban rail rail_electric rail_fast ship" speed="7.00" length="10.53" shape="585.10,458.16 583.74,457.54 582.79,455.77 582.26,452.86 582.13,448.79"/>
    </edge>
    <edge id=":49047359_2" function="internal">
        <lane id=":49047359_2_0" index="0" disallow="pedestrian tram rail_urban rail rail_electric rail_fast ship" speed="6.92" length="10.12" shape="572.49,454.92 575.27,454.50 577.27,453.34 578.49,451.41 578.93,448.74"/>
    </edge>
    <edge id=":49047359_3" function="internal">
        <lane id=":49047359_3_0" index="0" disallow="pedestrian tram rail_urban rail rail_electric rail_fast ship" speed="13.89" length="12.70" shape="572.49,454.92 585.19,454.96"/>
    </edge>
    <edge id=":49047359_4" function="internal">
        <lane id=":49047359_4_0" index="0" disallow="pedestrian tram rail_urban rail rail_electric rail_fast ship" speed="6.74" length="5.74" shape="578.64,464.29 578.31,461.56 577.18,459.63 576.54,459.25"/>
    </edge>
    <edge id=":49047359_5" function="internal">
        <lane id=":49047359_5_0" index="0" disallow="pedestrian tram rail_urban rail rail_electric rail_fast ship" speed="11.18" length="15.56" shape="578.64,464.29 578.93,448.74"/>
        <lane id=":49047359_5_1" index="1" disallow="pedestrian tram rail_urban rail rail_electric rail_fast ship" speed="11.18" length="15.56" shape="581.84,464.36 582.13,448.79"/>
    </edge>
    <edge id=":49047359_7" function="internal">
        <lane id=":49047359_7_0" index="0" disallow="pedestrian tram rail_urban rail rail_electric rail_fast ship" speed="7.01" length="10.70" shape="581.84,464.36 582.12,460.21 582.77,457.27 583.80,455.52 585.19,454.96"/>
    </edge>
    <edge id=":49047359_8" function="internal">
        <lane id=":49047359_8_0" index="0" disallow="pedestrian tram rail_urban rail rail_electric rail_fast ship" speed="6.74" length="4.25" shape="576.54,459.25 575.25,458.48 572.52,458.12"/>
    </edge>
    <edge id=":49047359_c0" function="crossing" crossingEdges="-5955850#0 5955850#0">
        <lane id=":49047359_c0_0" index="0" allow="pedestrian" speed="1.00" length="6.40" width="4.00" shape="583.23,453.31 583.06,459.70"/>
    </edge>
    <edge id=":49047359_c1" function="crossing" crossingEdges="6024091#2">
        <lane id=":49047359_c1_0" index="0" allow="pedestrian" speed="1.00" length="6.40" width="4.00" shape="577.30,450.71 583.70,450.82"/>
    </edge>
    <edge id=":49047359_c2" function="crossing" crossingEdges="5955850#1 -5955850#1">
        <lane id=":49047359_c2_0" index="0" allow="pedestrian" speed="1.00" length="6.40" width="4.00" shape="574.54,459.70 574.47,453.30"/>
    </edge>
    <edge id=":49047359_c3" function="crossing" crossingEdges="6024091#0">
        <lane id=":49047359_c3_0" index="0" allow="pedestrian" speed="1.00" length="6.40" width="4.00" shape="583.48,462.39 577.08,462.26"/>
    </edge>
    <edge id=":49047359_w0" function="walkingarea">
        <lane id=":49047359_w0_0" index="0" allow="pedestrian" speed="1.00" length="2.37" width="4.00" shape="583.44,464.39 584.97,462.76 585.06,459.76 584.59,459.88 584.20,460.25 583.89,460.90 583.66,461.80 583.51,462.96"/>
    </edge>
    <edge id=":49047359_w1" function="walkingarea">
        <lane id=":49047359_w1_0" index="0" allow="pedestrian" speed="1.00" length="2.31" width="4.00" shape="585.23,453.36 585.32,450.36 583.73,448.82 583.75,450.19 583.86,451.32 584.07,452.20 584.36,452.84 584.75,453.22"/>
    </edge>
    <edge id=":49047359_w2" function="walkingarea">
        <lane id=":49047359_w2_0" index="0" allow="pedestrian" speed="1.00" length="3.87" width="4.00" shape="577.33,448.71 574.33,448.66 572.44,450.32 572.47,453.32 573.93,453.17 575.14,452.78 576.08,452.14 576.76,451.25 577.17,450.10"/>
    </edge>
    <edge id=":49047359_w3" function="walkingarea">
        <lane id=":49047359_w3_0" index="0" allow="pedestrian" speed="1.00" length="3.69" width="4.00" shape="572.54,459.72 572.57,462.72 574.04,464.20 577.04,464.26 576.94,462.86 576.58,461.71 575.96,460.83 575.08,460.20 573.94,459.83"/>
    </edge>
    <edge id=":49047367_w0" function="walkingarea">
        <lane id=":49047367_w0_0" index="0" allow="pedestrian" speed="1.00" length="9.40" width="3.00" shape="-0.04,455.44 -0.08,452.44 0.08,464.84 0.04,461.84"/>
    </edge>
    <edge id=":49080928_0" function="internal">
        <lane id=":49080928_0_0" index="0" disallow="pedestrian tram rail_urban rail rail_electric rail_fast ship" speed="3.65" length="4.67" shape="836.50,113.23 837.31,112.04 838.11,111.64 838.91,112.04 839.70,113.25"/>
    </edge>
    <edge id=":49080928_w0" function="walkingarea">
        <lane id=":49080928_w0_0" index="0" allow="pedestrian" speed="1.00" length="9.40" width="3.00" shape="841.30,113.26 844.30,113.27 831.90,113.21 834.90,113.22"/>
    </edge>
    <edge id=":49080931_0" function="internal">
        <lane id=":49080931_0_0" index="0" disallow="pedestrian tram rail_urban rail rail_electric rail_fast ship" speed="6.80" length="5.62" shape="842.11,461.07 839.45,461.44 837.53,462.58 837.16,463.18"/>
    </edge>
    <edge id=":49080931_1" function="internal">
        <lane id=":49080931_1_0" index="0" disallow="pedestrian tram rail_urban rail rail_electric rail_fast ship" speed="13.89" length="9.23" shape="842.11,461.07 832.88,461.04"/>
    </edge>
    <edge id=":49080931_7" function="internal">
        <lane id=":49080931_7_0" index="0" disallow="pedestrian tram rail_urban rail rail_electric rail_fast ship" speed="6.80" length="4.24" shape="837.16,463.18 836.36,464.49 835.94,467.16"/>
    </edge>
    <edge id=":49080931_2" function="internal">
        <lane id=":49080931_2_0" index="0" disallow="pedestrian tram rail_urban rail rail_electric rail_fast ship" speed="6.78" length="9.84" shape="836.03,451.74 836.42,454.41 837.56,456.33 839.46,457.48 842.12,457.87"/>
    </edge>
    <edge id=":49080931_3" function="internal">
        <lane id=":49080931_3_0" index="0" disallow="pedestrian tram rail_urban rail rail_electric rail_fast ship" speed="13.89" length="15.43" shape="836.03,451.74 835.94,467.16"/>
    </edge>
    <edge id=":49080931_4" function="internal">
        <lane id=":49080931_4_0" index="0" disallow="pedestrian tram rail_urban rail rail_electric rail_fast ship" speed="6.96" length="10.54" shape="836.03,451.74 835.84,455.81 835.26,458.72 834.27,460.46 832.88,461.04"/>
    </edge>
    <edge id=":49080931_5" function="internal">
        <lane id=":49080931_5_0" index="0" disallow="pedestrian tram rail_urban rail rail_electric rail_fast ship" speed="13.89" length="9.22" shape="832.90,457.84 842.12,457.87"/>
    </edge>
    <edge id=":49080931_6" function="internal">
        <lane id=":49080931_6_0" index="0" disallow="pedestrian tram rail_urban rail rail_electric rail_fast ship" speed="6.96" length="2.66" shape="832.90,457.84 834.28,458.42 834.84,459.44"/>
    </edge>
    <edge id=":49080931_8" function="internal">
        <lane id=":49080931_8_0" index="0" disallow="pedestrian tram rail_urban rail rail_electric rail_fast ship" speed="6.96" length="7.88" shape="834.84,459.44 835.25,460.18 835.80,463.09 835.94,467.16"/>
    </edge>
    <edge id=":49080931_c0" function="crossing" crossingEdges="5962129#4 -5962129#4">
        <lane id=":49080931_c0_0" index="0" allow="pedestrian" speed="1.00" length="6.40" width="4.00" shape="840.13,456.26 840.11,462.66"/>
    </edge>
    <edge id=":49080931_c1" function="crossing" crossingEdges="36054466#9">
        <lane id=":49080931_c1_0" index="0" allow="pedestrian" speed="1.00" length="3.20" width="4.00" shape="834.44,453.74 837.64,453.74"/>
    </edge>
    <edge id=":49080931_c2" function="crossing" crossingEdges="-5962129#3 5962129#3">
        <lane id=":49080931_c2_0" index="0" allow="pedestrian" speed="1.00" length="6.40" width="4.00" shape="834.88,462.65 834.91,456.25"/>
    </edge>
    <edge id=":49080931_c3" function="crossing" crossingEdges="36054466#10">
        <lane id=":49080931_c3_0" index="0" allow="pedestrian" speed="1.00" length="3.20" width="4.00" shape="837.57,465.19 834.37,465.14"/>
    </edge>
    <edge id=":49080931_w0" function="walkingarea">
        <lane id=":49080931_w0_0" index="0" allow="pedestrian" speed="1.00" length="3.70" width="4.00" shape="837.54,467.19 840.54,467.23 842.10,465.67 842.11,462.67 840.73,462.79 839.60,463.17 838.72,463.79 838.08,464.67 837.69,465.80"/>
    </edge>
    <edge id=":49080931_w1" function="walkingarea">
        <lane id=":49080931_w1_0" index="0" allow="pedestrian" speed="1.00" length="3.68" width="4.00" shape="842.13,456.27 842.14,453.27 840.63,451.73 837.63,451.74 837.76,453.12 838.14,454.25 838.76,455.13 839.64,455.76 840.76,456.14"/>
    </edge>
    <edge id=":49080931_w2" function="walkingarea">
        <lane id=":49080931_w2_0" index="0" allow="pedestrian" speed="1.00" length="2.29" width="4.00" shape="834.43,451.74 832.92,453.24 832.91,456.24 833.37,456.11 833.76,455.74 834.06,455.12 834.27,454.24 834.39,453.12"/>
    </edge>
    <edge id=":49080931_w3" function="walkingarea">
        <lane id=":49080931_w3_0" index="0" allow="pedestrian" speed="1.00" length="2.29" width="4.00" shape="832.88,462.64 832.87,465.64 834.34,467.14 834.32,465.77 834.21,464.64 834.01,463.77 833.72,463.14 833.34,462.76"/>
    </edge>
    <edge id=":49110700_0" function="internal">
        <lane id=":49110700_0_0" index="0" disallow="pedestrian tram rail_urban rail rail_electric rail_fast ship" speed="6.82" length="9.96" shape="749.40,466.87 749.00,464.16 747.84,462.23 745.91,461.07 743.22,460.67"/>
    </edge>
    <edge id=":49110700_1" function="internal">
        <lane id=":49110700_1_0" index="0" disallow="pedestrian tram rail_urban rail rail_electric rail_fast ship" speed="13.89" length="15.50" shape="749.40,466.87 749.35,451.37"/>
    </edge>
    <edge id=":49110700_2" function="internal">
        <lane id=":49110700_2_0" index="0" disallow="pedestrian tram rail_urban rail rail_electric rail_fast ship" speed="8.20" length="15.08" shape="749.40,466.87 749.97,462.77 751.71,459.85 754.63,458.10 758.73,457.53"/>
    </edge>
    <edge id=":49110700_3" function="internal">