<?xml version="1.0" encoding="UTF-8"?>

<!-- generated on 06/16/20 20:04:59 by Eclipse SUMO duarouter Version 1.6.0
<configuration xmlns:xsi="http://www.w3.org/2001/XMLSchema-instance" xsi:noNamespaceSchemaLocation="http://sumo.dlr.de/xsd/duarouterConfiguration.xsd">

    <input>
        <net-file value="osm.net.xml"/>
        <route-files value="osm.bus.trips.xml"/>
    </input>

    <output>
        <output-file value="osm.bus.trips.xml.tmp"/>
        <write-trips value="true"/>
    </output>

    <time>
        <begin value="0"/>
        <end value="1800.0"/>
    </time>

    <report>
        <no-warnings value="true"/>
        <ignore-errors value="true"/>
        <no-step-log value="true"/>
    </report>

</configuration>
-->

<routes xmlns:xsi="http://www.w3.org/2001/XMLSchema-instance" xsi:noNamespaceSchemaLocation="http://sumo.dlr.de/xsd/routes_file.xsd">
    <vType id="bus_bus" vClass="bus"/>
    <trip id="bus0" type="bus_bus" depart="0.00" departLane="best" departSpeed="max" from="642337374#0" to="593766962#0"/>
    <trip id="bus1" type="bus_bus" depart="14.00" departLane="best" departSpeed="max" from="642337374#0" to="593766962#0"/>
    <trip id="bus2" type="bus_bus" depart="28.00" departLane="best" departSpeed="max" from="-5955850#2" to="593766962#0"/>
    <trip id="bus3" type="bus_bus" depart="42.00" departLane="best" departSpeed="max" from="89922370#0" to="642361032"/>
    <trip id="bus4" type="bus_bus" depart="56.00" departLane="best" departSpeed="max" from="89922370#0" to="642361032"/>
    <trip id="bus5" type="bus_bus" depart="70.00" departLane="best" departSpeed="max" from="-593766962#1" to="642361032"/>
    <trip id="bus7" type="bus_bus" depart="98.00" departLane="best" departSpeed="max" from="642337374#0" to="593766962#0"/>
    <trip id="bus9" type="bus_bus" depart="126.00" departLane="best" departSpeed="max" from="-5955850#2" to="436291029"/>
    <trip id="bus10" type="bus_bus" depart="140.00" departLane="best" departSpeed="max" from="89922370#0" to="5955850#2"/>
    <trip id="bus12" type="bus_bus" depart="168.00" departLane="best" departSpeed="max" from="642337374#0" to="593766962#0"/>
    <trip id="bus13" type="bus_bus" depart="182.00" departLane="best" departSpeed="max" from="-5955850#2" to="436291029"/>
    <trip id="bus14" type="bus_bus" depart="196.00" departLane="best" departSpeed="max" from="89922370#0" to="642361032"/>
    <trip id="bus15" type="bus_bus" depart="210.00" departLane="best" departSpeed="max" from="-593766962#1" to="5955850#2"/>
    <trip id="bus16" type="bus_bus" depart="224.00" departLane="best" departSpeed="max" from="-5955850#2" to="593766962#0"/>
    <trip id="bus18" type="bus_bus" depart="252.00" departLane="best" departSpeed="max" from="642337374#0" to="436291029"/>
    <trip id="bus19" type="bus_bus" depart="266.00" departLane="best" departSpeed="max" from="89922370#0" to="642361032"/>
    <trip id="bus21" type="bus_bus" depart="294.00" departLane="best" departSpeed="max" from="642337374#0" to="593766962#0"/>
    <trip id="bus23" type="bus_bus" depart="322.00" departLane="best" departSpeed="max" from="-593766962#1" to="642361032"/>
    <trip id="bus26" type="bus_bus" depart="364.00" departLane="best" departSpeed="max" from="-593766962#1" to="642361032"/>
    <trip id="bus27" type="bus_bus" depart="378.00" departLane="best" departSpeed="max" from="642337374#0" to="436291029"/>
    <trip id="bus28" type="bus_bus" depart="392.00" departLane="best" departSpeed="max" from="89922370#0" to="5955850#2"/>
    <trip id="bus29" type="bus_bus" depart="406.00" departLane="best" departSpeed="max" from="-593766962#1" to="642361032"/>
    <trip id="bus32" type="bus_bus" depart="448.00" departLane="best" departSpeed="max" from="-593766962#1" to="5955850#2"/>
    <trip id="bus34" type="bus_bus" depart="476.00" departLane="best" departSpeed="max" from="-5955850#2" to="593766962#0"/>
    <trip id="bus37" type="bus_bus" depart="518.00" departLane="best" departSpeed="max" from="-5955850#2" to="593766962#0"/>
    <trip id="bus39" type="bus_bus" depart="546.00" departLane="best" departSpeed="max" from="-593766962#1" to="5955850#2"/>
    <trip id="bus40" type="bus_bus" depart="560.00" departLane="best" departSpeed="max" from="642337374#0" to="593766962#0"/>
    <trip id="bus41" type="bus_bus" depart="574.00" departLane="best" departSpeed="max" from="89922370#0" to="642361032"/>
    <trip id="bus42" type="bus_bus" depart="588.00" departLane="best" departSpeed="max" from="-5955850#2" to="436291029"/>
    <trip id="bus45" type="bus_bus" depart="630.00" departLane="best" departSpeed="max" from="-5955850#2" to="436291029"/>
    <trip id="bus46" type="bus_bus" depart="644.00" departLane="best" departSpeed="max" from="-593766962#1" to="642361032"/>
    <trip id="bus48" type="bus_bus" depart="672.00" departLane="best" departSpeed="max" from="-5955850#2" to="436291029"/>
    <trip id="bus49" type="bus_bus" depart="686.00" departLane="best" departSpeed="max" from="-593766962#1" to="642361032"/>
    <trip id="bus50" type="bus_bus" depart="700.00" departLane="best" departSpeed="max" from="-593766962#1" to="642361032"/>
    <trip id="bus51" type="bus_bus" depart="714.00" departLane="best" departSpeed="max" from="-593766962#1" to="642361032"/>
    <trip id="bus52" type="bus_bus" depart="728.00" departLane="best" departSpeed="max" from="-593766962#1" to="642361032"/>
    <trip id="bus54" type="bus_bus" depart="756.00" departLane="best" departSpeed="max" from="-593766962#1" to="5955850#2"/>
    <trip id="bus55" type="bus_bus" depart="770.00" departLane="best" departSpeed="max" from="-5955850#2" to="593766962#0"/>
    <trip id="bus56" type="bus_bus" depart="784.00" departLane="best" departSpeed="max" from="642337374#0" to="436291029"/>
    <trip id="bus58" type="bus_bus" depart="812.00" departLane="best" departSpeed="max" from="642337374#0" to="436291029"/>
    <trip id="bus59" type="bus_bus" depart="826.00" departLane="best" departSpeed="max" from="642337374#0" to="593766962#0"/>
    <trip id="bus60" type="bus_bus" depart="840.00" departLane="best" departSpeed="max" from="642337374#0" to="436291029"/>
    <trip id="bus61" type="bus_bus" depart="854.00" departLane="best" departSpeed="max" from="-593766962#1" to="642361032"/>
    <trip id="bus62" type="bus_bus" depart="868.00" departLane="best" departSpeed="max" from="-593766962#1" to="642361032"/>
    <trip id="bus63" type="bus_bus" depart="882.00" departLane="best" departSpeed="max" from="89922370#0" to="642361032"/>
    <trip id="bus66" type="bus_bus" depart="924.00" departLane="best" departSpeed="max" from="642337374#0" to="436291029"/>
    <trip id="bus67" type="bus_bus" depart="938.00" departLane="best" departSpeed="max" from="-5955850#2" to="436291029"/>
    <trip id="bus69" type="bus_bus" depart="966.00" departLane="best" departSpeed="max" from="89922370#0" to="5955850#2"/>
    <trip id="bus71" type="bus_bus" depart="994.00" departLane="best" departSpeed="max" from="-5955850#2" to="436291029"/>
    <trip id="bus72" type="bus_bus" depart="1008.00" departLane="best" departSpeed="max" from="-593766962#1" to="642361032"/>
    <trip id="bus73" type="bus_bus" depart="1022.00" departLane="best" departSpeed="max" from="-5955850#2" to="593766962#0"/>
    <trip id="bus75" type="bus_bus" depart="1050.00" departLane="best" departSpeed="max" from="-5955850#2" to="436291029"/>
    <trip id="bus76" type="bus_bus" depart="1064.00" departLane="best" departSpeed="max" from="89922370#0" to="5955850#2"/>
    <trip id="bus77" type="bus_bus" depart="1078.00" departLane="best" departSpeed="max" from="-5955850#2" to="593766962#0"/>
    <trip id="bus78" type="bus_bus" depart="1092.00" departLane="best" departSpeed="max" from="-593766962#1" to="5955850#2"/>
    <trip id="bus79" type="bus_bus" depart="1106.00" departLane="best" departSpeed="max" from="89922370#0" to="5955850#2"/>
    <trip id="bus80" type="bus_bus" depart="1120.00" departLane="best" departSpeed="max" from="-5955850#2" to="593766962#0"/>
    <trip id="bus81" type="bus_bus" depart="1134.00" departLane="best" departSpeed="max" from="89922370#0" to="5955850#2"/>
    <trip id="bus82" type="bus_bus" depart="1148.00" departLane="best" departSpeed="max" from="-593766962#1" to="5955850#2"/>
    <trip id="bus83" type="bus_bus" depart="1162.00" departLane="best" departSpeed="max" from="-593766962#1" to="5955850#2"/>
    <trip id="bus85" type="bus_bus" depart="1190.00" departLane="best" departSpeed="max" from="-5955850#2" to="436291029"/>
    <trip id="bus86" type="bus_bus" depart="1204.00" departLane="best" departSpeed="max" from="89922370#0" to="5955850#2"/>
    <trip id="bus87" type="bus_bus" depart="1218.00" departLane="best" departSpeed="max" from="-5955850#2" to="436291029"/>
    <trip id="bus88" type="bus_bus" depart="1232.00" departLane="best" departSpeed="max" from="642337374#0" to="436291029"/>
    <trip id="bus89" type="bus_bus" depart="1246.00" departLane="best" departSpeed="max" from="-593766962#1" to="5955850#2"/>
    <trip id="bus90" type="bus_bus" depart="1260.00" departLane="best" departSpeed="max" from="-593766962#1" to="642361032"/>
    <trip id="bus91" type="bus_bus" depart="1274.00" departLane="best" departSpeed="max" from="-5955850#2" to="436291029"/>
    <trip id="bus92" type="bus_bus" depart="1288.00" departLane="best" departSpeed="max" from="642337374#0" to="436291029"/>
    <trip id="bus93" type="bus_bus" depart="1302.00" departLane="best" departSpeed="max" from="-593766962#1" to="642361032"/>
    <trip id="bus94" type="bus_bus" depart="1316.00" departLane="best" departSpeed="max" from="642337374#0" to="593766962#0"/>
    <trip id="bus95" type="bus_bus" depart="1330.00" departLane="best" departSpeed="max" from="-5955850#2" to="593766962#0"/>
    <trip id="bus96" type="bus_bus" depart="1344.00" departLane="best" departSpeed="max" from="-5955850#2" to="593766962#0"/>
    <trip id="bus97" type="bus_bus" depart="1358.00" departLane="best" departSpeed="max" from="-593766962#1" to="5955850#2"/>
    <trip id="bus98" type="bus_bus" depart="1372.00" departLane="best" departSpeed="max" from="642337374#0" to="436291029"/>
    <trip id="bus99" type="bus_bus" depart="1386.00" departLane="best" departSpeed="max" from="89922370#0" to="5955850#2"/>
    <trip id="bus100" type="bus_bus" depart="1400.00" departLane="best" departSpeed="max" from="89922370#0" to="642361032"/>
    <trip id="bus101" type="bus_bus" depart="1414.00" departLane="best" departSpeed="max" from="89922370#0" to="642361032"/>
    <trip id="bus103" type="bus_bus" depart="1442.00" departLane="best" departSpeed="max" from="-5955850#2" to="593766962#0"/>
    <trip id="bus104" type="bus_bus" depart="1456.00" departLane="best" departSpeed="max" from="-593766962#1" to="5955850#2"/>
    <trip id="bus106" type="bus_bus" depart="1484.00" departLane="best" departSpeed="max" from="89922370#0" to="5955850#2"/>
    <trip id="bus107" type="bus_bus" depart="1498.00" departLane="best" departSpeed="max" from="-5955850#2" to="593766962#0"/>
    <trip id="bus108" type="bus_bus" depart="1512.00" departLane="best" departSpeed="max" from="-5955850#2" to="593766962#0"/>
    <trip id="bus109" type="bus_bus" depart="1526.00" departLane="best" departSpeed="max" from="-593766962#1" to="642361032"/>
    <trip id="bus110" type="bus_bus" depart="1540.00" departLane="best" departSpeed="max" from="642337374#0" to="593766962#0"/>
    <trip id="bus113" type="bus_bus" depart="1582.00" departLane="best" departSpeed="max" from="89922370#0" to="5955850#2"/>
    <trip id="bus114" type="bus_bus" depart="1596.00" departLane="best" departSpeed="max" from="642337374#0" to="593766962#0"/>
    <trip id="bus117" type="bus_bus" depart="1638.00" departLane="best" departSpeed="max" from="-5955850#2" to="593766962#0"/>
    <trip id="bus118" type="bus_bus" depart="1652.00" departLane="best" departSpeed="max" from="89922370#0" to="5955850#2"/>
    <trip id="bus119" type="bus_bus" depart="1666.00" departLane="best" departSpeed="max" from="-5955850#2" to="436291029"/>
    <trip id="bus121" type="bus_bus" depart="1694.00" departLane="best" departSpeed="max" from="-5955850#2" to="436291029"/>
    <trip id="bus122" type="bus_bus" depart="1708.00" departLane="best" departSpeed="max" from="89922370#0" to="5955850#2"/>
    <trip id="bus123" type="bus_bus" depart="1722.00" departLane="best" departSpeed="max" from="642337374#0" to="436291029"/>
    <trip id="bus124" type="bus_bus" depart="1736.00" departLane="best" departSpeed="max" from="89922370#0" to="642361032"/>
    <trip id="bus125" type="bus_bus" depart="1750.00" departLane="best" departSpeed="max" from="-5955850#2" to="436291029"/>
    <trip id="bus126" type="bus_bus" depart="1764.00" departLane="best" departSpeed="max" from="-5955850#2" to="593766962#0"/>
    <trip id="bus127" type="bus_bus" depart="1778.00" departLane="best" departSpeed="max" from="89922370#0" to="642361032"/>
    <trip id="bus128" type="bus_bus" depart="1792.00" departLane="best" departSpeed="max" from="642337374#0" to="593766962#0"/>
</routes>
