<?xml version="1.0" encoding="UTF-8"?>

<!-- generated on Thu Apr 23 13:21:52 2020 by Eclipse SUMO duarouter Version 1.5.0
<configuration xmlns:xsi="http://www.w3.org/2001/XMLSchema-instance" xsi:noNamespaceSchemaLocation="http://sumo.dlr.de/xsd/duarouterConfiguration.xsd">

    <input>
        <net-file value="osm.net.xml"/>
        <route-files value="osm.passenger.trips.xml"/>
    </input>

    <output>
        <output-file value="osm.passenger.trips.xml.tmp"/>
        <write-trips value="true"/>
    </output>

    <time>
        <begin value="0"/>
        <end value="3600.0"/>
    </time>

    <report>
        <no-warnings value="true"/>
        <ignore-errors value="true"/>
        <no-step-log value="true"/>
    </report>

</configuration>
-->

<routes xmlns:xsi="http://www.w3.org/2001/XMLSchema-instance" xsi:noNamespaceSchemaLocation="http://sumo.dlr.de/xsd/routes_file.xsd">
    <vType id="veh_passenger" vClass="passenger"/>
    <trip id="veh0" type="veh_passenger" depart="0.00" departLane="best" from="6024091#2" to="5955850#2"/>
    <trip id="veh1" type="veh_passenger" depart="4.18" departLane="best" departSpeed="max" from="642337374#0" to="-5962129#4"/>
    <trip id="veh2" type="veh_passenger" depart="8.36" departLane="best" from="5955850#0" to="436291029"/>
    <trip id="veh3" type="veh_passenger" depart="12.55" departLane="best" from="641705064#1" to="5955850#2"/>
    <trip id="veh4" type="veh_passenger" depart="16.73" departLane="best" from="89922370#5" to="436291016#10"/>
    <trip id="veh5" type="veh_passenger" depart="20.91" departLane="best" departSpeed="max" from="-5955850#2" to="-641705065"/>
    <trip id="veh6" type="veh_passenger" depart="25.09" departLane="best" from="436291064#0" to="642751754#1"/>
    <trip id="veh9" type="veh_passenger" depart="37.64" departLane="best" departSpeed="max" from="6024091#0" to="-593766960"/>
    <trip id="veh10" type="veh_passenger" depart="41.82" departLane="best" departSpeed="max" from="-5955850#2" to="36054466#9"/>
    <trip id="veh12" type="veh_passenger" depart="50.19" departLane="best" from="89927838#3" to="593766962#0"/>
    <trip id="veh13" type="veh_passenger" depart="54.37" departLane="best" from="436291064#1" to="5955850#2"/>
    <trip id="veh14" type="veh_passenger" depart="58.55" departLane="best" from="36054466#8" to="642751754#1"/>
    <trip id="veh15" type="veh_passenger" depart="62.74" departLane="best" departSpeed="max" from="642337374#0" to="436291016#10"/>
    <trip id="veh16" type="veh_passenger" depart="66.92" departLane="best" departSpeed="max" from="89922370#0" to="436291019"/>
    <trip id="veh17" type="veh_passenger" depart="71.10" departLane="best" departSpeed="max" from="573865733#0" to="436291010"/>
    <trip id="veh18" type="veh_passenger" depart="75.28" departLane="best" departSpeed="max" from="573865733#0" to="642361032"/>
    <trip id="veh19" type="veh_passenger" depart="79.47" departLane="best" departSpeed="max" from="-5955850#2" to="-593766960"/>
    <trip id="veh20" type="veh_passenger" depart="83.65" departLane="best" from="436291010" to="593766962#0"/>
    <trip id="veh21" type="veh_passenger" depart="87.83" departLane="best" departSpeed="max" from="89922370#0" to="641705146#2"/>
    <trip id="veh22" type="veh_passenger" depart="92.01" departLane="best" from="436291013" to="593766962#0"/>
    <trip id="veh23" type="veh_passenger" depart="96.20" departLane="best" departSpeed="max" from="573865733#0" to="278328405#1"/>
    <trip id="veh24" type="veh_passenger" depart="100.38" departLane="best" from="-593766960" to="642361032"/>
    <trip id="veh25" type="veh_passenger" depart="104.56" departLane="best" departSpeed="max" from="642337374#0" to="642751754#1"/>
    <trip id="veh26" type="veh_passenger" depart="108.74" departLane="best" departSpeed="max" from="-5955850#2" to="436291020#1"/>
    <trip id="veh27" type="veh_passenger" depart="112.93" departLane="best" departSpeed="max" from="-5955850#2" to="634644489"/>
    <trip id="veh28" type="veh_passenger" depart="117.11" departLane="best" departSpeed="max" from="436291021#0" to="436291029"/>
    <trip id="veh29" type="veh_passenger" depart="121.29" departLane="best" departSpeed="max" from="-5955850#2" to="593766961"/>
    <trip id="veh30" type="veh_passenger" depart="125.47" departLane="best" departSpeed="max" from="419814433#0" to="642361032"/>
    <trip id="veh31" type="veh_passenger" depart="129.66" departLane="best" departSpeed="max" from="642337374#0" to="-5962129#1"/>
    <trip id="veh32" type="veh_passenger" depart="133.84" departLane="best" departSpeed="max" from="89922370#0" to="436291031"/>
    <trip id="veh33" type="veh_passenger" depart="138.02" departLane="best" from="641705064#1" to="36054466#10"/>
    <trip id="veh35" type="veh_passenger" depart="146.39" departLane="best" from="gneE1" to="641705146#2"/>
    <trip id="veh36" type="veh_passenger" depart="150.57" departLane="best" departSpeed="max" from="89927838#0" to="642361032"/>
    <trip id="veh37" type="veh_passenger" depart="154.75" departLane="best" from="642337373" to="36054466#10"/>
    <trip id="veh39" type="veh_passenger" depart="163.12" departLane="best" departSpeed="max" from="89927838#0" to="436291062"/>
    <trip id="veh40" type="veh_passenger" depart="167.30" departLane="best" departSpeed="max" from="436291021#0" to="641705146#2"/>
    <trip id="veh41" type="veh_passenger" depart="171.48" departLane="best" departSpeed="max" from="-5955850#2" to="36054466#10"/>
    <trip id="veh42" type="veh_passenger" depart="175.66" departLane="best" departSpeed="max" from="573865733#0" to="5955850#2"/>
    <trip id="veh43" type="veh_passenger" depart="179.85" departLane="best" departSpeed="max" from="419814433#0" to="-89927838#0"/>
    <trip id="veh44" type="veh_passenger" depart="184.03" departLane="best" departSpeed="max" from="573865733#0" to="593766960"/>
    <trip id="veh45" type="veh_passenger" depart="188.21" departLane="best" from="436291062" to="642751754#0"/>
    <trip id="veh46" type="veh_passenger" depart="192.39" departLane="best" departSpeed="max" from="-5955850#2" to="436291019"/>
    <trip id="veh47" type="veh_passenger" depart="196.58" departLane="best" departSpeed="max" from="-5955850#2" to="36054466#5"/>
    <trip id="veh49" type="veh_passenger" depart="204.94" departLane="best" from="5962129#1" to="642751754#0"/>
    <trip id="veh50" type="veh_passenger" depart="209.12" departLane="best" from="-5962129#2" to="436291029"/>
    <trip id="veh51" type="veh_passenger" depart="213.31" departLane="best" departSpeed="max" from="6024091#0" to="36054466#4"/>
    <trip id="veh52" type="veh_passenger" depart="217.49" departLane="best" departSpeed="max" from="436291021#0" to="642361032"/>
    <trip id="veh53" type="veh_passenger" depart="221.67" departLane="best" from="642337373" to="-5962129#5"/>
    <trip id="veh54" type="veh_passenger" depart="225.85" departLane="best" from="6024091#3" to="436291029"/>
    <trip id="veh55" type="veh_passenger" depart="230.04" departLane="best" departSpeed="max" from="-5955850#2" to="642337373"/>
    <trip id="veh56" type="veh_passenger" depart="234.22" departLane="best" from="641705063#3" to="641705146#2"/>
    <trip id="veh57" type="veh_passenger" depart="238.40" departLane="best" from="642337374#1" to="36054466#5"/>
    <trip id="veh58" type="veh_passenger" depart="242.58" departLane="best" from="419814433#1" to="-89927838#0"/>
    <trip id="veh61" type="veh_passenger" depart="255.13" departLane="best" departSpeed="max" from="642337374#0" to="642751754#1"/>
    <trip id="veh62" type="veh_passenger" depart="259.31" departLane="best" departSpeed="max" from="-593766962#1" to="6024091#2"/>
    <trip id="veh63" type="veh_passenger" depart="263.50" departLane="best" from="641705064#0" to="641705146#2"/>
    <trip id="veh64" type="veh_passenger" depart="267.68" departLane="best" departSpeed="max" from="419814433#0" to="641705146#0"/>
    <trip id="veh65" type="veh_passenger" depart="271.86" departLane="best" from="436291016#2" to="641705146#2"/>
    <trip id="veh66" type="veh_passenger" depart="276.04" departLane="best" departSpeed="max" from="89922370#0" to="-89927838#0"/>
    <trip id="veh67" type="veh_passenger" depart="280.23" departLane="best" departSpeed="max" from="89927838#0" to="36054466#10"/>
    <trip id="veh68" type="veh_passenger" depart="284.41" departLane="best" departSpeed="max" from="573865733#0" to="436291029"/>
    <trip id="veh69" type="veh_passenger" depart="288.59" departLane="best" from="436291016#1" to="641705146#2"/>
    <trip id="veh70" type="veh_passenger" depart="292.77" departLane="best" departSpeed="max" from="6024091#0" to="436291016#1"/>
    <trip id="veh71" type="veh_passenger" depart="296.96" departLane="best" departSpeed="max" from="89922370#0" to="5955850#2"/>
    <trip id="veh72" type="veh_passenger" depart="301.14" departLane="best" from="436291013" to="436291029"/>
    <trip id="veh74" type="veh_passenger" depart="309.50" departLane="best" departSpeed="max" from="436291021#0" to="642361032"/>
    <trip id="veh75" type="veh_passenger" depart="313.69" departLane="best" departSpeed="max" from="-5955850#2" to="436291029"/>
    <trip id="veh76" type="veh_passenger" depart="317.87" departLane="best" from="36054466#5" to="5955850#2"/>
    <trip id="veh77" type="veh_passenger" depart="322.05" departLane="best" from="6024091#5" to="641705063#0"/>
    <trip id="veh78" type="veh_passenger" depart="326.23" departLane="best" from="419814433#1" to="641705146#2"/>
    <trip id="veh79" type="veh_passenger" depart="330.42" departLane="best" departSpeed="max" from="6024091#0" to="436291029"/>
    <trip id="veh81" type="veh_passenger" depart="338.78" departLane="best" departSpeed="max" from="436291021#0" to="436291010"/>
    <trip id="veh82" type="veh_passenger" depart="342.96" departLane="best" from="419814433#1" to="593766962#0"/>
    <trip id="veh85" type="veh_passenger" depart="355.51" departLane="best" departSpeed="max" from="419814433#0" to="5955850#2"/>
    <trip id="veh87" type="veh_passenger" depart="363.88" departLane="best" from="436291018" to="642361032"/>
    <trip id="veh88" type="veh_passenger" depart="368.06" departLane="best" departSpeed="max" from="573865733#0" to="5955850#2"/>
    <trip id="veh89" type="veh_passenger" depart="372.24" departLane="best" departSpeed="max" from="642337374#0" to="641705063#0"/>
    <trip id="veh90" type="veh_passenger" depart="376.42" departLane="best" departSpeed="max" from="642337374#0" to="642751754#1"/>
    <trip id="veh91" type="veh_passenger" depart="380.61" departLane="best" from="436291018" to="6024091#5"/>
    <trip id="veh92" type="veh_passenger" depart="384.79" departLane="best" from="436291016#3" to="5955850#2"/>
    <trip id="veh94" type="veh_passenger" depart="393.15" departLane="best" departSpeed="max" from="436291021#0" to="-89927838#3"/>
    <trip id="veh95" type="veh_passenger" depart="397.34" departLane="best" from="573865733#1" to="-419814433#1"/>
    <trip id="veh96" type="veh_passenger" depart="401.52" departLane="best" from="6024091#5" to="641705146#2"/>
    <trip id="veh97" type="veh_passenger" depart="405.70" departLane="best" departSpeed="max" from="89922370#0" to="36054466#3"/>
    <trip id="veh98" type="veh_passenger" depart="409.88" departLane="best" from="-5962129#5" to="5955850#1"/>
    <trip id="veh99" type="veh_passenger" depart="414.07" departLane="best" departSpeed="max" from="573865733#0" to="36054466#6"/>
    <trip id="veh100" type="veh_passenger" depart="418.25" departLane="best" departSpeed="max" from="6024091#0" to="641705063#0"/>
    <trip id="veh101" type="veh_passenger" depart="422.43" departLane="best" from="6024091#5" to="-89927838#0"/>
    <trip id="veh102" type="veh_passenger" depart="426.61" departLane="best" from="436291016#0" to="5955850#2"/>
    <trip id="veh103" type="veh_passenger" depart="430.80" departLane="best" from="89922370#5" to="436291016#5"/>
    <trip id="veh104" type="veh_passenger" depart="434.98" departLane="best" departSpeed="max" from="6024091#0" to="593766961"/>
    <trip id="veh105" type="veh_passenger" depart="439.16" departLane="best" from="641705063#2" to="436291016#10"/>
    <trip id="veh106" type="veh_passenger" depart="443.34" departLane="best" from="-5962129#1" to="642751754#1"/>
    <trip id="veh107" type="veh_passenger" depart="447.53" departLane="best" from="593766961" to="641705146#1"/>
    <trip id="veh108" type="veh_passenger" depart="451.71" departLane="best" from="6024091#2" to="642751754#1"/>
    <trip id="veh109" type="veh_passenger" depart="455.89" departLane="best" from="436291010" to="641705146#2"/>
    <trip id="veh111" type="veh_passenger" depart="464.26" departLane="best" departSpeed="max" from="642337374#0" to="419814433#2"/>
    <trip id="veh112" type="veh_passenger" depart="468.44" departLane="best" from="642337373" to="36054466#10"/>
    <trip id="veh114" type="veh_passenger" depart="476.80" departLane="best" from="-419814433#2" to="642751754#1"/>
    <trip id="veh115" type="veh_passenger" depart="480.99" departLane="best" departSpeed="max" from="-5955850#2" to="5962129#3"/>
    <trip id="veh116" type="veh_passenger" depart="485.17" departLane="best" departSpeed="max" from="436291021#0" to="634644489"/>
    <trip id="veh117" type="veh_passenger" depart="489.35" departLane="best" departSpeed="max" from="6024091#0" to="593766962#0"/>
    <trip id="veh118" type="veh_passenger" depart="493.53" departLane="best" departSpeed="max" from="436291021#0" to="641705063#3"/>
    <trip id="veh119" type="veh_passenger" depart="497.72" departLane="best" departSpeed="max" from="-5955850#2" to="36054466#7"/>
    <trip id="veh120" type="veh_passenger" depart="501.90" departLane="best" departSpeed="max" from="6024091#0" to="436291016#1"/>
    <trip id="veh121" type="veh_passenger" depart="506.08" departLane="best" departSpeed="max" from="573865733#0" to="436291020#0"/>
    <trip id="veh122" type="veh_passenger" depart="510.26" departLane="best" departSpeed="max" from="6024091#0" to="436291011"/>
    <trip id="veh123" type="veh_passenger" depart="514.45" departLane="best" from="419814433#1" to="-89927838#0"/>
    <trip id="veh124" type="veh_passenger" depart="518.63" departLane="best" departSpeed="max" from="6024091#0" to="-89927838#0"/>
    <trip id="veh125" type="veh_passenger" depart="522.81" departLane="best" departSpeed="max" from="642337374#0" to="436291020#2"/>
    <trip id="veh126" type="veh_passenger" depart="526.99" departLane="best" departSpeed="max" from="89922370#0" to="436291020#0"/>
    <trip id="veh127" type="veh_passenger" depart="531.18" departLane="best" departSpeed="max" from="-5955850#2" to="593766961"/>
    <trip id="veh128" type="veh_passenger" depart="535.36" departLane="best" departSpeed="max" from="573865733#0" to="436291016#1"/>
    <trip id="veh129" type="veh_passenger" depart="539.54" departLane="best" from="641705063#0" to="436291064#1"/>
    <trip id="veh131" type="veh_passenger" depart="547.91" departLane="best" from="6024091#3" to="642751754#1"/>
    <trip id="veh132" type="veh_passenger" depart="552.09" departLane="best" departSpeed="max" from="573865733#0" to="436291016#0"/>
    <trip id="veh133" type="veh_passenger" depart="556.27" departLane="best" departSpeed="max" from="6024091#0" to="436291018"/>
    <trip id="veh134" type="veh_passenger" depart="560.45" departLane="best" from="5962129#5" to="642361032"/>
    <trip id="veh135" type="veh_passenger" depart="564.63" departLane="best" from="5962129#5" to="5955850#2"/>
    <trip id="veh136" type="veh_passenger" depart="568.82" departLane="best" departSpeed="max" from="89922370#0" to="436291029"/>
    <trip id="veh137" type="veh_passenger" depart="573.00" departLane="best" departSpeed="max" from="-593766962#1" to="436291016#8"/>
    <trip id="veh138" type="veh_passenger" depart="577.18" departLane="best" departSpeed="max" from="-5955850#2" to="642751754#1"/>
    <trip id="veh139" type="veh_passenger" depart="581.36" departLane="best" departSpeed="max" from="89922370#0" to="gneE1"/>
    <trip id="veh140" type="veh_passenger" depart="585.55" departLane="best" departSpeed="max" from="-593766962#1" to="634644489"/>
    <trip id="veh141" type="veh_passenger" depart="589.73" departLane="best" departSpeed="max" from="89922370#0" to="36054466#10"/>
    <trip id="veh142" type="veh_passenger" depart="593.91" departLane="best" departSpeed="max" from="573865733#0" to="593766962#0"/>
    <trip id="veh143" type="veh_passenger" depart="598.09" departLane="best" from="5962129#2" to="641705146#2"/>
    <trip id="veh144" type="veh_passenger" depart="602.28" departLane="best" from="436291016#2" to="5955850#2"/>
    <trip id="veh145" type="veh_passenger" depart="606.46" departLane="best" from="641705064#1" to="436291029"/>
    <trip id="veh147" type="veh_passenger" depart="614.82" departLane="best" from="436291016#1" to="642751754#1"/>
    <trip id="veh149" type="veh_passenger" depart="623.19" departLane="best" departSpeed="max" from="89927838#0" to="593766962#0"/>
    <trip id="veh151" type="veh_passenger" depart="631.55" departLane="best" from="-5962129#4" to="642751754#1"/>
    <trip id="veh152" type="veh_passenger" depart="635.74" departLane="best" departSpeed="max" from="573865733#0" to="419814433#1"/>
    <trip id="veh153" type="veh_passenger" depart="639.92" departLane="best" from="89927838#3" to="642361032"/>
    <trip id="veh155" type="veh_passenger" depart="648.28" departLane="best" departSpeed="max" from="6024091#0" to="436291029"/>
    <trip id="veh156" type="veh_passenger" depart="652.47" departLane="best" from="436291010" to="641705146#2"/>
    <trip id="veh157" type="veh_passenger" depart="656.65" departLane="best" departSpeed="max" from="89922370#0" to="436291029"/>
    <trip id="veh158" type="veh_passenger" depart="660.83" departLane="best" departSpeed="max" from="436291021#0" to="641705146#0"/>
    <trip id="veh159" type="veh_passenger" depart="665.01" departLane="best" departSpeed="max" from="573865733#0" to="gneE1"/>
    <trip id="veh160" type="veh_passenger" depart="669.20" departLane="best" departSpeed="max" from="436291021#0" to="278328405#1"/>
    <trip id="veh161" type="veh_passenger" depart="673.38" departLane="best" from="436291064#1" to="436291029"/>
    <trip id="veh163" type="veh_passenger" depart="681.74" departLane="best" from="36054466#4" to="5955850#2"/>
    <trip id="veh164" type="veh_passenger" depart="685.93" departLane="best" departSpeed="max" from="573865733#0" to="36054466#9"/>
    <trip id="veh165" type="veh_passenger" depart="690.11" departLane="best" departSpeed="max" from="642337374#0" to="436291016#9"/>
    <trip id="veh167" type="veh_passenger" depart="698.47" departLane="best" departSpeed="max" from="436291021#0" to="642751754#1"/>
    <trip id="veh168" type="veh_passenger" depart="702.66" departLane="best" from="436291016#3" to="5955850#2"/>
    <trip id="veh169" type="veh_passenger" depart="706.84" departLane="best" from="5955850#0" to="641705146#2"/>
    <trip id="veh170" type="veh_passenger" depart="711.02" departLane="best" departSpeed="max" from="6024091#0" to="634644489"/>
    <trip id="veh171" type="veh_passenger" depart="715.20" departLane="best" departSpeed="max" from="642337374#0" to="-419814433#2"/>
    <trip id="veh172" type="veh_passenger" depart="719.39" departLane="best" departSpeed="max" from="-5955850#2" to="593766961"/>
    <trip id="veh173" type="veh_passenger" depart="723.57" departLane="best" departSpeed="max" from="89922370#0" to="gneE1"/>
    <trip id="veh174" type="veh_passenger" depart="727.75" departLane="best" from="-5962129#0" to="593766962#0"/>
    <trip id="veh175" type="veh_passenger" depart="731.93" departLane="best" departSpeed="max" from="642337374#0" to="436291016#9"/>
    <trip id="veh176" type="veh_passenger" depart="736.12" departLane="best" departSpeed="max" from="6024091#0" to="642361032"/>
    <trip id="veh177" type="veh_passenger" depart="740.30" departLane="best" departSpeed="max" from="-593766962#1" to="641705064#0"/>
    <trip id="veh178" type="veh_passenger" depart="744.48" departLane="best" from="234953562" to="436291029"/>
    <trip id="veh179" type="veh_passenger" depart="748.66" departLane="best" departSpeed="max" from="573865733#0" to="641705063#3"/>
    <trip id="veh180" type="veh_passenger" depart="752.85" departLane="best" departSpeed="max" from="642337374#0" to="593766960"/>
    <trip id="veh181" type="veh_passenger" depart="757.03" departLane="best" departSpeed="max" from="419814433#0" to="642361032"/>
    <trip id="veh182" type="veh_passenger" depart="761.21" departLane="best" from="642337374#1" to="5955850#2"/>
    <trip id="veh184" type="veh_passenger" depart="769.58" departLane="best" from="419814433#1" to="641705146#2"/>
    <trip id="veh185" type="veh_passenger" depart="773.76" departLane="best" departSpeed="max" from="573865733#0" to="436291062"/>
    <trip id="veh186" type="veh_passenger" depart="777.94" departLane="best" departSpeed="max" from="89927838#0" to="593766965"/>
    <trip id="veh187" type="veh_passenger" depart="782.12" departLane="best" departSpeed="max" from="-593766962#1" to="436291064#1"/>
    <trip id="veh188" type="veh_passenger" depart="786.31" departLane="best" departSpeed="max" from="436291021#0" to="642361032"/>
    <trip id="veh189" type="veh_passenger" depart="790.49" departLane="best" departSpeed="max" from="573865733#0" to="436291016#10"/>
    <trip id="veh190" type="veh_passenger" depart="794.67" departLane="best" from="5962129#0" to="641705146#2"/>
    <trip id="veh191" type="veh_passenger" depart="798.85" departLane="best" from="593766960" to="642361032"/>
    <trip id="veh192" type="veh_passenger" depart="803.04" departLane="best" from="436291064#0" to="642751754#1"/>
    <trip id="veh194" type="veh_passenger" depart="811.40" departLane="best" from="436291016#3" to="-89927838#0"/>
    <trip id="veh195" type="veh_passenger" depart="815.58" departLane="best" departSpeed="max" from="6024091#0" to="642751754#1"/>
    <trip id="veh198" type="veh_passenger" depart="828.13" departLane="best" departSpeed="max" from="-593766962#1" to="642337373"/>
    <trip id="veh199" type="veh_passenger" depart="832.31" departLane="best" departSpeed="max" from="573865733#0" to="642361032"/>
    <trip id="veh200" type="veh_passenger" depart="836.50" departLane="best" from="436291013" to="436291016#6"/>
    <trip id="veh201" type="veh_passenger" depart="840.68" departLane="best" departSpeed="max" from="89922370#0" to="436291016#7"/>
    <trip id="veh202" type="veh_passenger" depart="844.86" departLane="best" from="6024091#3" to="278328405#1"/>
    <trip id="veh203" type="veh_passenger" depart="849.04" departLane="best" departSpeed="max" from="89922370#0" to="-419814433#2"/>
    <trip id="veh204" type="veh_passenger" depart="853.23" departLane="best" departSpeed="max" from="89922370#0" to="641705146#2"/>
    <trip id="veh205" type="veh_passenger" depart="857.41" departLane="best" from="-5962129#0" to="5955850#2"/>
    <trip id="veh206" type="veh_passenger" depart="861.59" departLane="best" from="436291064#1" to="642751754#1"/>
    <trip id="veh207" type="veh_passenger" depart="865.77" departLane="best" from="642337373" to="436291018"/>
    <trip id="veh208" type="veh_passenger" depart="869.96" departLane="best" from="5962129#1" to="593766962#0"/>
    <trip id="veh209" type="veh_passenger" depart="874.14" departLane="best" departSpeed="max" from="573865733#0" to="-419814433#0"/>
    <trip id="veh210" type="veh_passenger" depart="878.32" departLane="best" departSpeed="max" from="-5955850#2" to="641705063#0"/>
    <trip id="veh211" type="veh_passenger" depart="882.50" departLane="best" departSpeed="max" from="642337374#0" to="436291016#10"/>
    <trip id="veh213" type="veh_passenger" depart="890.87" departLane="best" from="-419814433#1" to="641705146#2"/>
    <trip id="veh214" type="veh_passenger" depart="895.05" departLane="best" from="6024091#3" to="436291029"/>
    <trip id="veh215" type="veh_passenger" depart="899.23" departLane="best" from="6024091#3" to="436291020#0"/>
    <trip id="veh216" type="veh_passenger" depart="903.42" departLane="best" from="-5962129#2" to="436291029"/>
    <trip id="veh217" type="veh_passenger" depart="907.60" departLane="best" departSpeed="max" from="89922370#0" to="-593766960"/>
    <trip id="veh218" type="veh_passenger" depart="911.78" departLane="best" from="641705063#2" to="641705146#2"/>
    <trip id="veh222" type="veh_passenger" depart="928.51" departLane="best" departSpeed="max" from="573865733#0" to="-641705065"/>
    <trip id="veh223" type="veh_passenger" depart="932.69" departLane="best" departSpeed="max" from="6024091#0" to="641705146#2"/>
    <trip id="veh225" type="veh_passenger" depart="941.06" departLane="best" departSpeed="max" from="6024091#0" to="36054466#6"/>
    <trip id="veh226" type="veh_passenger" depart="945.24" departLane="best" from="436291018" to="5955850#0"/>
    <trip id="veh228" type="veh_passenger" depart="953.61" departLane="best" departSpeed="max" from="89922370#0" to="-5962129#0"/>
    <trip id="veh230" type="veh_passenger" depart="961.97" departLane="best" from="641705064#1" to="436291029"/>
    <trip id="veh231" type="veh_passenger" depart="966.15" departLane="best" departSpeed="max" from="573865733#0" to="436291031"/>
    <trip id="veh232" type="veh_passenger" depart="970.34" departLane="best" from="436291016#2" to="-89927838#0"/>
    <trip id="veh233" type="veh_passenger" depart="974.52" departLane="best" from="6024091#5" to="641705146#2"/>
    <trip id="veh234" type="veh_passenger" depart="978.70" departLane="best" departSpeed="max" from="6024091#0" to="642751754#1"/>
    <trip id="veh235" type="veh_passenger" depart="982.88" departLane="best" departSpeed="max" from="573865733#0" to="436291016#10"/>
    <trip id="veh236" type="veh_passenger" depart="987.07" departLane="best" departSpeed="max" from="573865733#0" to="36054466#5"/>
    <trip id="veh237" type="veh_passenger" depart="991.25" departLane="best" from="-5962129#2" to="641705146#2"/>
    <trip id="veh239" type="veh_passenger" depart="999.61" departLane="best" departSpeed="max" from="573865733#0" to="641705064#1"/>
    <trip id="veh240" type="veh_passenger" depart="1003.80" departLane="best" from="642337373" to="642751754#1"/>
    <trip id="veh241" type="veh_passenger" depart="1007.98" departLane="best" departSpeed="max" from="89922370#0" to="641705146#1"/>
    <trip id="veh242" type="veh_passenger" depart="1012.16" departLane="best" from="436291010" to="36054466#10"/>
    <trip id="veh244" type="veh_passenger" depart="1020.53" departLane="best" from="436291018" to="436291016#10"/>
    <trip id="veh245" type="veh_passenger" depart="1024.71" departLane="best" departSpeed="max" from="-5955850#2" to="-593766965"/>
    <trip id="veh246" type="veh_passenger" depart="1028.89" departLane="best" from="6024091#5" to="-89927838#0"/>
    <trip id="veh247" type="veh_passenger" depart="1033.07" departLane="best" departSpeed="max" from="6024091#0" to="436291029"/>
    <trip id="veh248" type="veh_passenger" depart="1037.26" departLane="best" departSpeed="max" from="-5955850#2" to="641705146#2"/>
    <trip id="veh249" type="veh_passenger" depart="1041.44" departLane="best" departSpeed="max" from="-593766962#1" to="-419814433#0"/>
    <trip id="veh250" type="veh_passenger" depart="1045.62" departLane="best" departSpeed="max" from="89922370#0" to="641705146#2"/>
    <trip id="veh251" type="veh_passenger" depart="1049.80" departLane="best" departSpeed="max" from="573865733#0" to="436291031"/>
    <trip id="veh252" type="veh_passenger" depart="1053.99" departLane="best" departSpeed="max" from="89922370#0" to="-5962129#4"/>
    <trip id="veh253" type="veh_passenger" depart="1058.17" departLane="best" departSpeed="max" from="573865733#0" to="436291029"/>
    <trip id="veh255" type="veh_passenger" depart="1066.53" departLane="best" departSpeed="max" from="6024091#0" to="641705146#0"/>
    <trip id="veh257" type="veh_passenger" depart="1074.90" departLane="best" from="6024091#5" to="634644489"/>
    <trip id="veh259" type="veh_passenger" depart="1083.26" departLane="best" departSpeed="max" from="573865733#0" to="593766962#0"/>
    <trip id="veh260" type="veh_passenger" depart="1087.45" departLane="best" departSpeed="max" from="-5955850#2" to="436291016#9"/>
    <trip id="veh261" type="veh_passenger" depart="1091.63" departLane="best" from="-5955850#0" to="436291029"/>
    <trip id="veh262" type="veh_passenger" depart="1095.81" departLane="best" from="-5955850#0" to="641705146#2"/>
    <trip id="veh263" type="veh_passenger" depart="1099.99" departLane="best" departSpeed="max" from="-5955850#2" to="641705146#2"/>
    <trip id="veh264" type="veh_passenger" depart="1104.17" departLane="best" departSpeed="max" from="436291021#0" to="436291019"/>
    <trip id="veh265" type="veh_passenger" depart="1108.36" departLane="best" from="642337374#1" to="436291018"/>
    <trip id="veh266" type="veh_passenger" depart="1112.54" departLane="best" from="641705064#1" to="593766962#0"/>
    <trip id="veh269" type="veh_passenger" depart="1125.09" departLane="best" from="-5955850#1" to="-5962129#5"/>
    <trip id="veh270" type="veh_passenger" depart="1129.27" departLane="best" departSpeed="max" from="6024091#0" to="593766962#0"/>
    <trip id="veh272" type="veh_passenger" depart="1137.63" departLane="best" from="234953562" to="436291016#10"/>
    <trip id="veh273" type="veh_passenger" depart="1141.82" departLane="best" departSpeed="max" from="89927838#0" to="5955850#2"/>
    <trip id="veh274" type="veh_passenger" depart="1146.00" departLane="best" departSpeed="max" from="89922370#0" to="436291016#10"/>
    <trip id="veh275" type="veh_passenger" depart="1150.18" departLane="best" departSpeed="max" from="89922370#0" to="436291020#1"/>
    <trip id="veh276" type="veh_passenger" depart="1154.36" departLane="best" departSpeed="max" from="419814433#0" to="234953562"/>