<?xml version="1.0" encoding="UTF-8"?>

<!-- generated on 04/21/20 18:24:03 by Eclipse SUMO duarouter Version 1.3.1
<configuration xmlns:xsi="http://www.w3.org/2001/XMLSchema-instance" xsi:noNamespaceSchemaLocation="http://sumo.dlr.de/xsd/duarouterConfiguration.xsd">

    <input>
        <net-file value="osm.net.xml"/>
        <route-files value="osm.truck.trips.xml"/>
    </input>

    <output>
        <output-file value="osm.truck.trips.xml.tmp"/>
        <write-trips value="true"/>
    </output>

    <time>
        <begin value="0"/>
        <end value="3600.0"/>
    </time>

    <report>
        <no-warnings value="true"/>
        <ignore-errors value="true"/>
        <no-step-log value="true"/>
    </report>

</configuration>
-->

<routes xmlns:xsi="http://www.w3.org/2001/XMLSchema-instance" xsi:noNamespaceSchemaLocation="http://sumo.dlr.de/xsd/routes_file.xsd">
    <vType id="truck_truck" vClass="truck"/>
    <trip id="truck0" type="truck_truck" depart="0.00" departLane="best" departSpeed="max" from="-5955850#2" to="-5962129#1"/>
    <trip id="truck1" type="truck_truck" depart="26.77" departLane="best" departSpeed="max" from="642337374#0" to="593766962#0"/>
    <trip id="truck2" type="truck_truck" depart="53.53" departLane="best" departSpeed="max" from="-5955850#2" to="36054466#4"/>
    <trip id="truck3" type="truck_truck" depart="80.30" departLane="best" from="436291064#1" to="5955850#2"/>
    <trip id="truck4" type="truck_truck" depart="107.06" departLane="best" departSpeed="max" from="89922370#0" to="436291016#8"/>
    <trip id="truck5" type="truck_truck" depart="133.83" departLane="best" departSpeed="max" from="-5955850#2" to="593766962#0"/>
    <trip id="truck6" type="truck_truck" depart="160.59" departLane="best" departSpeed="max" from="-5955850#2" to="436291016#5"/>
    <trip id="truck7" type="truck_truck" depart="187.36" departLane="best" departSpeed="max" from="89922370#0" to="642337372"/>
    <trip id="truck8" type="truck_truck" depart="214.12" departLane="best" departSpeed="max" from="-5955850#2" to="36054466#10"/>
    <trip id="truck9" type="truck_truck" depart="240.89" departLane="best" from="36054466#3" to="5955850#2"/>
    <trip id="truck10" type="truck_truck" depart="267.66" departLane="best" departSpeed="max" from="-5955850#2" to="436291016#4"/>
    <trip id="truck11" type="truck_truck" depart="294.42" departLane="best" departSpeed="max" from="436291021#0" to="641705146#2"/>
    <trip id="truck12" type="truck_truck" depart="321.19" departLane="best" departSpeed="max" from="573865733#0" to="5955850#2"/>
    <trip id="truck13" type="truck_truck" depart="347.95" departLane="best" departSpeed="max" from="573865733#0" to="593766962#0"/>
    <trip id="truck14" type="truck_truck" depart="374.72" departLane="best" departSpeed="max" from="-5955850#2" to="436291062"/>
    <trip id="truck15" type="truck_truck" depart="401.48" departLane="best" departSpeed="max" from="6024091#0" to="278328405#1"/>
    <trip id="truck16" type="truck_truck" depart="428.25" departLane="best" departSpeed="max" from="89922370#0" to="436291031"/>
    <trip id="truck17" type="truck_truck" depart="455.01" departLane="best" departSpeed="max" from="-5955850#2" to="436291016#5"/>
    <trip id="truck18" type="truck_truck" depart="481.78" departLane="best" departSpeed="max" from="-5955850#2" to="436291016#3"/>
    <trip id="truck19" type="truck_truck" depart="508.54" departLane="best" departSpeed="max" from="89927838#0" to="5955850#2"/>
    <trip id="truck20" type="truck_truck" depart="535.31" departLane="best" departSpeed="max" from="-5955850#2" to="436291016#3"/>
    <trip id="truck21" type="truck_truck" depart="562.08" departLane="best" departSpeed="max" from="89922370#0" to="6024091#3"/>
    <trip id="truck22" type="truck_truck" depart="588.84" departLane="best" from="419814433#2" to="5955850#2"/>
    <trip id="truck23" type="truck_truck" depart="615.61" departLane="best" departSpeed="max" from="-5955850#2" to="-419814433#0"/>
    <trip id="truck24" type="truck_truck" depart="642.37" departLane="best" departSpeed="max" from="419814433#0" to="5955850#2"/>
    <trip id="truck25" type="truck_truck" depart="669.14" departLane="best" departSpeed="max" from="-5955850#2" to="641705063#1"/>
    <trip id="truck26" type="truck_truck" depart="695.90" departLane="best" departSpeed="max" from="642337374#0" to="593766962#0"/>
    <trip id="truck27" type="truck_truck" depart="722.67" departLane="best" departSpeed="max" from="-5955850#2" to="89927838#3"/>
    <trip id="truck28" type="truck_truck" depart="749.43" departLane="best" departSpeed="max" from="-5955850#2" to="642751754#1"/>
    <trip id="truck29" type="truck_truck" depart="776.20" departLane="best" departSpeed="max" from="-5955850#2" to="36054466#10"/>
    <trip id="truck30" type="truck_truck" depart="802.97" departLane="best" from="gneE0" to="5955850#2"/>
    <trip id="truck32" type="truck_truck" depart="856.50" departLane="best" departSpeed="max" from="6024091#0" to="436291029"/>
    <trip id="truck33" type="truck_truck" depart="883.26" departLane="best" departSpeed="max" from="573865733#0" to="36054466#10"/>
    <trip id="truck34" type="truck_truck" depart="910.03" departLane="best" departSpeed="max" from="-5955850#2" to="593766965"/>
    <trip id="truck35" type="truck_truck" depart="936.79" departLane="best" departSpeed="max" from="642337374#0" to="593766962#0"/>
    <trip id="truck36" type="truck_truck" depart="963.56" departLane="best" departSpeed="max" from="89922370#0" to="5955850#2"/>
    <trip id="truck37" type="truck_truck" depart="990.32" departLane="best" from="89927838#3" to="5955850#2"/>
    <trip id="truck38" type="truck_truck" depart="1017.09" departLane="best" from="436291018" to="5955850#2"/>
    <trip id="truck39" type="truck_truck" depart="1043.85" departLane="best" departSpeed="max" from="-5955850#2" to="36054466#10"/>
    <trip id="truck41" type="truck_truck" depart="1097.39" departLane="best" departSpeed="max" from="-5955850#2" to="436291064#0"/>
    <trip id="truck42" type="truck_truck" depart="1124.15" departLane="best" departSpeed="max" from="-5955850#2" to="436291020#2"/>
    <trip id="truck43" type="truck_truck" depart="1150.92" departLane="best" departSpeed="max" from="6024091#0" to="641705146#2"/>
    <trip id="truck45" type="truck_truck" depart="1204.45" departLane="best" from="436291010" to="5955850#2"/>
    <trip id="truck46" type="truck_truck" depart="1231.21" departLane="best" departSpeed="max" from="6024091#0" to="642751754#1"/>
    <trip id="truck47" type="truck_truck" depart="1257.98" departLane="best" departSpeed="max" from="-5955850#2" to="641705146#2"/>
    <trip id="truck48" type="truck_truck" depart="1284.74" departLane="best" departSpeed="max" from="89922370#0" to="641705146#1"/>
    <trip id="truck49" type="truck_truck" depart="1311.51" departLane="best" departSpeed="max" from="89922370#0" to="641705146#2"/>
    <trip id="truck50" type="truck_truck" depart="1338.28" departLane="best" departSpeed="max" from="-5955850#2" to="-419814433#0"/>
    <trip id="truck52" type="truck_truck" depart="1391.81" departLane="best" departSpeed="max" from="-5955850#2" to="436291029"/>
    <trip id="truck53" type="truck_truck" depart="1418.57" departLane="best" departSpeed="max" from="89922370#0" to="436291011"/>
    <trip id="truck54" type="truck_truck" depart="1445.34" departLane="best" departSpeed="max" from="-593766962#1" to="641705146#2"/>
    <trip id="truck55" type="truck_truck" depart="1472.10" departLane="best" departSpeed="max" from="642337374#0" to="593766962#0"/>
    <trip id="truck56" type="truck_truck" depart="1498.87" departLane="best" departSpeed="max" from="89922370#0" to="436291016#7"/>
    <trip id="truck57" type="truck_truck" depart="1525.63" departLane="best" departSpeed="max" from="6024091#0" to="5955850#2"/>
    <trip id="truck58" type="truck_truck" depart="1552.40" departLane="best" departSpeed="max" from="89922370#0" to="642337372"/>
    <trip id="truck60" type="truck_truck" depart="1605.93" departLane="best" departSpeed="max" from="-5955850#2" to="641705063#0"/>
    <trip id="truck61" type="truck_truck" depart="1632.70" departLane="best" departSpeed="max" from="-5955850#2" to="641705146#2"/>
    <trip id="truck62" type="truck_truck" depart="1659.46" departLane="best" departSpeed="max" from="89922370#0" to="641705146#2"/>
    <trip id="truck63" type="truck_truck" depart="1686.23" departLane="best" departSpeed="max" from="-5955850#2" to="36054466#6"/>
    <trip id="truck64" type="truck_truck" depart="1712.99" departLane="best" departSpeed="max" from="-5955850#2" to="436291016#1"/>
    <trip id="truck65" type="truck_truck" depart="1739.76" departLane="best" departSpeed="max" from="89922370#0" to="436291016#10"/>
    <trip id="truck67" type="truck_truck" depart="1793.29" departLane="best" departSpeed="max" from="573865733#0" to="593766962#0"/>
    <trip id="truck68" type="truck_truck" depart="1820.05" departLane="best" departSpeed="max" from="89922370#0" to="436291016#6"/>
    <trip id="truck69" type="truck_truck" depart="1846.82" departLane="best" departSpeed="max" from="-5955850#2" to="278328405#1"/>
    <trip id="truck71" type="truck_truck" depart="1900.35" departLane="best" departSpeed="max" from="89922370#0" to="641705146#2"/>
    <trip id="truck72" type="truck_truck" depart="1927.12" departLane="best" departSpeed="max" from="-5955850#2" to="36054466#6"/>
    <trip id="truck73" type="truck_truck" depart="1953.88" departLane="best" from="436291013" to="5955850#2"/>
    <trip id="truck74" type="truck_truck" depart="1980.65" departLane="best" from="-5962129#2" to="5955850#2"/>
    <trip id="truck75" type="truck_truck" depart="2007.41" departLane="best" departSpeed="max" from="89922370#0" to="642337372"/>
    <trip id="truck76" type="truck_truck" depart="2034.18" departLane="best" departSpeed="max" from="419814433#0" to="5955850#2"/>
    <trip id="truck77" type="truck_truck" depart="2060.94" departLane="best" from="36054466#3" to="5955850#2"/>
    <trip id="truck78" type="truck_truck" depart="2087.71" departLane="best" departSpeed="max" from="89922370#0" to="-5962129#0"/>
    <trip id="truck79" type="truck_truck" depart="2114.47" departLane="best" departSpeed="max" from="6024091#0" to="642751754#1"/>
    <trip id="truck80" type="truck_truck" depart="2141.24" departLane="best" departSpeed="max" from="89922370#0" to="642337373"/>
    <trip id="truck81" type="truck_truck" depart="2168.01" departLane="best" departSpeed="max" from="-5955850#2" to="89927838#3"/>
    <trip id="truck82" type="truck_truck" depart="2194.77" departLane="best" departSpeed="max" from="-5955850#2" to="-89927838#0"/>
    <trip id="truck83" type="truck_truck" depart="2221.54" departLane="best" departSpeed="max" from="-5955850#2" to="36054466#8"/>
    <trip id="truck84" type="truck_truck" depart="2248.30" departLane="best" departSpeed="max" from="89922370#0" to="5962129#1"/>
    <trip id="truck85" type="truck_truck" depart="2275.07" departLane="best" from="436291016#0" to="5955850#2"/>
    <trip id="truck86" type="truck_truck" depart="2301.83" departLane="best" departSpeed="max" from="-5955850#2" to="-419814433#0"/>
    <trip id="truck87" type="truck_truck" depart="2328.60" departLane="best" from="573865733#1" to="5955850#2"/>
    <trip id="truck88" type="truck_truck" depart="2355.36" departLane="best" from="-5962129#1" to="5955850#2"/>
    <trip id="truck89" type="truck_truck" depart="2382.13" departLane="best" departSpeed="max" from="89927838#0" to="5955850#2"/>
    <trip id="truck90" type="truck_truck" depart="2408.90" departLane="best" from="36054466#7" to="5955850#2"/>
    <trip id="truck91" type="truck_truck" depart="2435.66" departLane="best" departSpeed="max" from="-5955850#2" to="89927838#3"/>
    <trip id="truck92" type="truck_truck" depart="2462.43" departLane="best" departSpeed="max" from="89922370#0" to="436291016#1"/>
    <trip id="truck93" type="truck_truck" depart="2489.19" departLane="best" departSpeed="max" from="436291021#0" to="5955850#2"/>
    <trip id="truck94" type="truck_truck" depart="2515.96" departLane="best" departSpeed="max" from="89922370#0" to="-5962129#2"/>
    <trip id="truck95" type="truck_truck" depart="2542.72" departLane="best" departSpeed="max" from="-5955850#2" to="-89927838#0"/>
    <trip id="truck96" type="truck_truck" depart="2569.49" departLane="best" departSpeed="max" from="-5955850#2" to="436291029"/>
    <trip id="truck97" type="truck_truck" depart="2596.25" departLane="best" departSpeed="max" from="89922370#0" to="436291064#0"/>
    <trip id="truck98" type="truck_truck" depart="2623.02" departLane="best" from="5962129#5" to="5955850#2"/>
    <trip id="truck99" type="truck_truck" depart="2649.79" departLane="best" departSpeed="max" from="-5955850#2" to="-419814433#0"/>
    <trip id="truck100" type="truck_truck" depart="2676.55" departLane="best" departSpeed="max" from="-5955850#2" to="593766962#0"/>
    <trip id="truck101" type="truck_truck" depart="2703.32" departLane="best" departSpeed="max" from="-5955850#2" to="36054466#8"/>
    <trip id="truck102" type="truck_truck" depart="2730.08" departLane="best" departSpeed="max" from="-5955850#2" to="436291064#0"/>
    <trip id="truck103" type="truck_truck" depart="2756.85" departLane="best" departSpeed="max" from="89922370#0" to="5962129#0"/>
    <trip id="truck104" type="truck_truck" depart="2783.61" departLane="best" from="89927838#3" to="5955850#2"/>
    <trip id="truck105" type="truck_truck" depart="2810.38" departLane="best" departSpeed="max" from="-5955850#2" to="642751754#1"/>
    <trip id="truck106" type="truck_truck" depart="2837.14" departLane="best" departSpeed="max" from="6024091#0" to="278328405#1"/>
    <trip id="truck107" type="truck_truck" depart="2863.91" departLane="best" departSpeed="max" from="642337374#0" to="593766962#0"/>
    <trip id="truck108" type="truck_truck" depart="2890.67" departLane="best" departSpeed="max" from="-5955850#2" to="36054466#8"/>
    <trip id="truck109" type="truck_truck" depart="2917.44" departLane="best" departSpeed="max" from="-5955850#2" to="641705063#1"/>
    <trip id="truck110" type="truck_truck" depart="2944.21" departLane="best" from="641705063#0" to="5955850#2"/>
    <trip id="truck112" type="truck_truck" depart="2997.74" departLane="best" from="419814433#4" to="5955850#2"/>
    <trip id="truck113" type="truck_truck" depart="3024.50" departLane="best" departSpeed="max" from="-5955850#2" to="641705146#2"/>
    <trip id="truck114" type="truck_truck" depart="3051.27" departLane="best" from="36054466#2" to="5955850#2"/>
    <trip id="truck115" type="truck_truck" depart="3078.03" departLane="best" from="36054466#1" to="5955850#2"/>
    <trip id="truck116" type="truck_truck" depart="3104.80" departLane="best" departSpeed="max" from="6024091#0" to="641705146#2"/>
    <trip id="truck117" type="truck_truck" depart="3131.56" departLane="best" departSpeed="max" from="-5955850#2" to="436291020#1"/>
    <trip id="truck118" type="truck_truck" depart="3158.33" departLane="best" from="436291011" to="5955850#2"/>
    <trip id="truck119" type="truck_truck" depart="3185.10" departLane="best" departSpeed="max" from="6024091#0" to="-89927838#0"/>
    <trip id="truck120" type="truck_truck" depart="3211.86" departLane="best" departSpeed="max" from="-5955850#2" to="641705063#2"/>
    <trip id="truck122" type="truck_truck" depart="3265.39" departLane="best" departSpeed="max" from="89922370#0" to="6024091#2"/>
    <trip id="truck123" type="truck_truck" depart="3292.16" departLane="best" departSpeed="max" from="-5955850#2" to="-641705065"/>
    <trip id="truck124" type="truck_truck" depart="3318.92" departLane="best" departSpeed="max" from="-5955850#2" to="-89927838#0"/>
    <trip id="truck125" type="truck_truck" depart="3345.69" departLane="best" departSpeed="max" from="89922370#0" to="436291016#6"/>
    <trip id="truck126" type="truck_truck" depart="3372.45" departLane="best" from="-593766960" to="5955850#2"/>
    <trip id="truck127" type="truck_truck" depart="3399.22" departLane="best" departSpeed="max" from="89922370#0" to="-419814433#0"/>
    <trip id="truck128" type="truck_truck" depart="3425.98" departLane="best" departSpeed="max" from="6024091#0" to="642751754#1"/>
    <trip id="truck129" type="truck_truck" depart="3452.75" departLane="best" departSpeed="max" from="-5955850#2" to="36054466#8"/>
    <trip id="truck130" type="truck_truck" depart="3479.52" departLane="best" departSpeed="max" from="6024091#0" to="642751754#0"/>
    <trip id="truck131" type="truck_truck" depart="3506.28" departLane="best" departSpeed="max" from="419814433#0" to="5955850#2"/>
    <trip id="truck132" type="truck_truck" depart="3533.05" departLane="best" departSpeed="max" from="-5955850#2" to="5962129#5"/>
    <trip id="truck133" type="truck_truck" depart="3559.81" departLane="best" departSpeed="max" from="-5955850#2" to="436291019"/>
    <trip id="truck134" type="truck_truck" depart="3586.58" departLane="best" departSpeed="max" from="6024091#0" to="-89927838#0"/>
</routes>
