<?xml version="1.0" encoding="UTF-8"?>

<!-- generated on 04/28/20 20:26:54 by Eclipse SUMO duarouter Version 1.3.1
<configuration xmlns:xsi="http://www.w3.org/2001/XMLSchema-instance" xsi:noNamespaceSchemaLocation="http://sumo.dlr.de/xsd/duarouterConfiguration.xsd">

    <input>
        <net-file value="osm.net.xml"/>
        <route-files value="osm.bus.trips.xml"/>
    </input>

    <output>
        <output-file value="osm.bus.rou.xml"/>
        <alternatives-output value="osm.bus.rou.alt.xml"/>
    </output>

    <time>
        <begin value="0"/>
        <end value="3600.0"/>
    </time>

    <report>
        <no-warnings value="true"/>
        <ignore-errors value="true"/>
        <no-step-log value="true"/>
    </report>

</configuration>
-->

<routes xmlns:xsi="http://www.w3.org/2001/XMLSchema-instance" xsi:noNamespaceSchemaLocation="http://sumo.dlr.de/xsd/routes_file.xsd">
    <vType id="bus_bus" vClass="bus"/>
    <vehicle id="bus0" type="bus_bus" depart="0.00" departLane="best" departSpeed="max">
        <route edges="-5955850#2 -5955850#1 -5955850#0 5962129#0 5962129#1 5962129#2 5962129#3 5962129#4 5962129#5 593766965 gneE0 593766960 593766962#0"/>
    </vehicle>
    <vehicle id="bus1" type="bus_bus" depart="20.41" departLane="best" departSpeed="max">
        <route edges="-5955850#2 -5955850#1 -5955850#0 5962129#0 5962129#1 5962129#2 5962129#3 5962129#4 5962129#5 593766965 gneE0 593766961 436291018 436291020#0 436291020#1 436291020#2 436291019 278328405#1 436291029"/>
    </vehicle>
    <vehicle id="bus4" type="bus_bus" depart="81.65" departLane="best" departSpeed="max">
        <route edges="-5955850#2 -5955850#1 -5955850#0 5962129#0 5962129#1 5962129#2 5962129#3 5962129#4 5962129#5 593766965 gneE0 593766960 593766962#0"/>
    </vehicle>
    <vehicle id="bus5" type="bus_bus" depart="102.06" departLane="best" departSpeed="max">
        <route edges="642337374#0 642337374#1 642337373 436291011 436291010 436291016#0 436291016#1 436291016#2 436291016#3 5962129#0 5962129#1 5962129#2 5962129#3 5962129#4 5962129#5 593766965 gneE0 593766960 593766962#0"/>
    </vehicle>
    <vehicle id="bus6" type="bus_bus" depart="122.47" departLane="best" departSpeed="max">
        <route edges="89922370#0 89922370#5 641705063#0 641705063#1 641705063#2 641705063#3 641705064#0 641705064#1 436291031 436291016#0 436291016#1 436291016#2 436291016#3 5955850#0 5955850#1 5955850#2"/>
    </vehicle>
    <vehicle id="bus7" type="bus_bus" depart="142.89" departLane="best" departSpeed="max">
        <route edges="-5955850#2 -5955850#1 -5955850#0 5962129#0 5962129#1 5962129#2 5962129#3 5962129#4 5962129#5 593766965 gneE0 593766961 436291018 436291020#0 436291020#1 436291020#2 436291019 278328405#1 436291029"/>
    </vehicle>
    <vehicle id="bus8" type="bus_bus" depart="163.30" departLane="best" departSpeed="max">
        <route edges="642337374#0 642337374#1 642337373 234953562 634644489 278328405#0 278328405#1 436291029"/>
    </vehicle>
    <vehicle id="bus10" type="bus_bus" depart="204.12" departLane="best" departSpeed="max">
        <route edges="642337374#0 642337374#1 642337373 234953562 634644489 278328405#0 278328405#1 436291029"/>
    </vehicle>
    <vehicle id="bus13" type="bus_bus" depart="265.36" departLane="best" departSpeed="max">
        <route edges="89922370#0 89922370#5 641705063#0 641705063#1 641705063#2 641705063#3 641705064#0 641705064#1 436291031 436291016#0 436291016#1 436291016#2 436291016#3 5955850#0 5955850#1 5955850#2"/>
    </vehicle>
    <vehicle id="bus16" type="bus_bus" depart="326.60" departLane="best" departSpeed="max">
        <route edges="-5955850#2 -5955850#1 -5955850#0 5962129#0 5962129#1 5962129#2 5962129#3 5962129#4 5962129#5 593766965 gneE0 593766961 436291018 436291020#0 436291020#1 436291020#2 436291019 278328405#1 436291029"/>
    </vehicle>
    <vehicle id="bus17" type="bus_bus" depart="347.01" departLane="best" departSpeed="max">
        <route edges="89922370#0 89922370#5 641705063#0 641705063#1 641705063#2 641705063#3 641705064#0 641705064#1 436291031 436291016#0 436291016#1 436291016#2 436291016#3 5955850#0 5955850#1 5955850#2"/>
    </vehicle>
    <vehicle id="bus18" type="bus_bus" depart="367.42" departLane="best" departSpeed="max">
        <route edges="642337374#0 642337374#1 642337373 436291011 436291010 436291016#0 436291016#1 436291016#2 436291016#3 5962129#0 5962129#1 5962129#2 5962129#3 5962129#4 5962129#5 593766965 gneE0 593766960 593766962#0"/>
    </vehicle>
    <vehicle id="bus19" type="bus_bus" depart="387.84" departLane="best" departSpeed="max">
        <route edges="642337374#0 642337374#1 642337373 436291011 436291010 436291016#0 436291016#1 436291016#2 436291016#3 5962129#0 5962129#1 5962129#2 5962129#3 5962129#4 5962129#5 593766965 gneE0 593766960 593766962#0"/>
    </vehicle>
    <vehicle id="bus20" type="bus_bus" depart="408.25" departLane="best" departSpeed="max">
        <route edges="6024091#0 -5955850#0 5962129#0 5962129#1 5962129#2 5962129#3 5962129#4 5962129#5 593766965 gneE0 593766961 436291018 436291020#0 436291020#1 436291020#2 436291019 278328405#1 436291029"/>
    </vehicle>
    <vehicle id="bus21" type="bus_bus" depart="428.66" departLane="best" departSpeed="max">
        <route edges="-593766962#1 -593766960 593766961 436291018 641705063#0 641705063#1 641705063#2 641705063#3 641705064#0 641705064#1 436291031 436291062 436291064#0 436291064#1 642361032"/>
    </vehicle>
    <vehicle id="bus22" type="bus_bus" depart="449.07" departLane="best" departSpeed="max">
        <route edges="642337374#0 642337374#1 642337373 234953562 634644489 278328405#0 278328405#1 436291029"/>
    </vehicle>
    <vehicle id="bus23" type="bus_bus" depart="469.49" departLane="best" departSpeed="max">
        <route edges="-593766962#1 -593766960 gneE1 -593766965 -5962129#5 -5962129#4 -5962129#3 -5962129#2 -5962129#1 -5962129#0 5955850#0 5955850#1 5955850#2"/>
    </vehicle>
    <vehicle id="bus24" type="bus_bus" depart="489.90" departLane="best" departSpeed="max">
        <route edges="642337374#0 642337374#1 642337373 234953562 634644489 278328405#0 278328405#1 436291029"/>
    </vehicle>
    <vehicle id="bus26" type="bus_bus" depart="530.72" departLane="best" departSpeed="max">
        <route edges="642337374#0 642337374#1 642337373 436291011 436291010 436291016#0 436291016#1 436291016#2 436291016#3 5962129#0 5962129#1 5962129#2 5962129#3 5962129#4 5962129#5 593766965 gneE0 593766960 593766962#0"/>
    </vehicle>
    <vehicle id="bus27" type="bus_bus" depart="551.13" departLane="best" departSpeed="max">
        <route edges="89922370#0 89922370#5 641705063#0 641705063#1 641705063#2 641705063#3 641705064#0 641705064#1 436291031 436291016#0 436291016#1 436291016#2 436291016#3 5955850#0 5955850#1 5955850#2"/>
    </vehicle>
    <vehicle id="bus28" type="bus_bus" depart="571.55" departLane="best" departSpeed="max">
        <route edges="-593766962#1 -593766960 593766961 436291018 641705063#0 641705063#1 641705063#2 641705063#3 641705064#0 641705064#1 436291031 436291062 436291064#0 436291064#1 642361032"/>
    </vehicle>
    <vehicle id="bus29" type="bus_bus" depart="591.96" departLane="best" departSpeed="max">
        <route edges="89922370#0 89922370#5 641705063#0 641705063#1 641705063#2 641705063#3 641705064#0 641705064#1 436291031 436291016#0 436291016#1 436291016#2 436291016#3 5955850#0 5955850#1 5955850#2"/>
    </vehicle>
    <vehicle id="bus30" type="bus_bus" depart="612.37" departLane="best" departSpeed="max">
        <route edges="-593766962#1 -593766960 gneE1 -593766965 -5962129#5 -5962129#4 -5962129#3 -5962129#2 -5962129#1 -5962129#0 5955850#0 5955850#1 5955850#2"/>
    </vehicle>
    <vehicle id="bus32" type="bus_bus" depart="653.20" departLane="best" departSpeed="max">
        <route edges="642337374#0 642337374#1 642337373 234953562 634644489 278328405#0 278328405#1 436291029"/>
    </vehicle>
    <vehicle id="bus34" type="bus_bus" depart="694.02" departLane="best" departSpeed="max">
        <route edges="-5955850#2 -5955850#1 -5955850#0 5962129#0 5962129#1 5962129#2 5962129#3 5962129#4 5962129#5 593766965 gneE0 593766960 593766962#0"/>
    </vehicle>
    <vehicle id="bus38" type="bus_bus" depart="775.67" departLane="best" departSpeed="max">
        <route edges="-5955850#2 -5955850#1 -5955850#0 5962129#0 5962129#1 5962129#2 5962129#3 5962129#4 5962129#5 593766965 gneE0 593766960 593766962#0"/>
    </vehicle>
    <vehicle id="bus39" type="bus_bus" depart="796.08" departLane="best" departSpeed="max">
        <route edges="-5955850#2 -5955850#1 -5955850#0 5962129#0 5962129#1 5962129#2 5962129#3 5962129#4 5962129#5 593766965 gneE0 593766960 593766962#0"/>
    </vehicle>
    <vehicle id="bus40" type="bus_bus" depart="816.50" departLane="best" departSpeed="max">
        <route edges="642337374#0 642337374#1 642337373 234953562 634644489 278328405#0 278328405#1 436291029"/>
    </vehicle>
    <vehicle id="bus42" type="bus_bus" depart="857.32" departLane="best" departSpeed="max">
        <route edges="-5955850#2 -5955850#1 -5955850#0 5962129#0 5962129#1 5962129#2 5962129#3 5962129#4 5962129#5 593766965 gneE0 593766961 436291018 436291020#0 436291020#1 436291020#2 436291019 278328405#1 436291029"/>
    </vehicle>
    <vehicle id="bus44" type="bus_bus" depart="898.15" departLane="best" departSpeed="max">
        <route edges="-593766962#1 -593766960 gneE1 -593766965 -5962129#5 -5962129#4 -5962129#3 -5962129#2 -5962129#1 -5962129#0 5955850#0 5955850#1 5955850#2"/>
    </vehicle>
    <vehicle id="bus45" type="bus_bus" depart="918.56" departLane="best" departSpeed="max">
        <route edges="89922370#0 89922370#5 641705063#0 641705063#1 641705063#2 641705063#3 641705064#0 641705064#1 436291031 436291016#0 436291016#1 436291016#2 436291016#3 5955850#0 5955850#1 5955850#2"/>
    </vehicle>
    <vehicle id="bus47" type="bus_bus" depart="959.38" departLane="best" departSpeed="max">
        <route edges="-593766962#1 -593766960 593766961 436291018 641705063#0 641705063#1 641705063#2 641705063#3 641705064#0 641705064#1 436291031 436291062 436291064#0 436291064#1 642361032"/>
    </vehicle>
    <vehicle id="bus49" type="bus_bus" depart="1000.21" departLane="best" departSpeed="max">
        <route edges="6024091#0 -5955850#0 5962129#0 5962129#1 5962129#2 5962129#3 5962129#4 5962129#5 593766965 gneE0 593766961 436291018 436291020#0 436291020#1 436291020#2 436291019 278328405#1 436291029"/>
    </vehicle>
    <vehicle id="bus50" type="bus_bus" depart="1020.62" departLane="best" departSpeed="max">
        <route edges="642337374#0 642337374#1 642337373 234953562 634644489 278328405#0 278328405#1 436291029"/>
    </vehicle>
    <vehicle id="bus51" type="bus_bus" depart="1041.03" departLane="best" departSpeed="max">
        <route edges="642337374#0 642337374#1 642337373 234953562 634644489 278328405#0 278328405#1 436291029"/>
    </vehicle>
    <vehicle id="bus55" type="bus_bus" depart="1122.68" departLane="best" departSpeed="max">
        <route edges="-5955850#2 -5955850#1 -5955850#0 5962129#0 5962129#1 5962129#2 5962129#3 5962129#4 5962129#5 593766965 gneE0 593766960 593766962#0"/>
    </vehicle>
    <vehicle id="bus56" type="bus_bus" depart="1143.09" departLane="best" departSpeed="max">
        <route edges="-593766962#1 -593766960 593766961 436291018 641705063#0 641705063#1 641705063#2 641705063#3 641705064#0 641705064#1 436291031 436291062 436291064#0 436291064#1 642361032"/>
    </vehicle>
    <vehicle id="bus57" type="bus_bus" depart="1163.51" departLane="best" departSpeed="max">
        <route edges="89922370#0 89922370#5 641705063#0 641705063#1 641705063#2 641705063#3 641705064#0 641705064#1 436291031 436291062 436291064#0 436291064#1 642361032"/>
    </vehicle>
    <vehicle id="bus58" type="bus_bus" depart="1183.92" departLane="best" departSpeed="max">
        <route edges="89922370#0 89922370#5 641705063#0 641705063#1 641705063#2 641705063#3 641705064#0 641705064#1 436291031 436291016#0 436291016#1 436291016#2 436291016#3 5955850#0 5955850#1 5955850#2"/>
    </vehicle>
    <vehicle id="bus59" type="bus_bus" depart="1204.33" departLane="best" departSpeed="max">
        <route edges="6024091#0 -5955850#0 5962129#0 5962129#1 5962129#2 5962129#3 5962129#4 5962129#5 593766965 gneE0 593766961 436291018 436291020#0 436291020#1 436291020#2 436291019 278328405#1 436291029"/>
    </vehicle>
    <vehicle id="bus61" type="bus_bus" depart="1245.16" departLane="best" departSpeed="max">
        <route edges="-5955850#2 -5955850#1 -5955850#0 5962129#0 5962129#1 5962129#2 5962129#3 5962129#4 5962129#5 593766965 gneE0 593766961 436291018 436291020#0 436291020#1 436291020#2 436291019 278328405#1 436291029"/>
    </vehicle>
    <vehicle id="bus62" type="bus_bus" depart="1265.57" departLane="best" departSpeed="max">
        <route edges="-593766962#1 -593766960 gneE1 -593766965 -5962129#5 -5962129#4 -5962129#3 -5962129#2 -5962129#1 -5962129#0 5955850#0 5955850#1 5955850#2"/>
    </vehicle>
    <vehicle id="bus63" type="bus_bus" depart="1285.98" departLane="best" departSpeed="max">
        <route edges="-5955850#2 -5955850#1 -5955850#0 5962129#0 5962129#1 5962129#2 5962129#3 5962129#4 5962129#5 593766965 gneE0 593766961 436291018 436291020#0 436291020#1 436291020#2 436291019 278328405#1 436291029"/>
    </vehicle>
    <vehicle id="bus64" type="bus_bus" depart="1306.39" departLane="best" departSpeed="max">
        <route edges="-5955850#2 -5955850#1 -5955850#0 5962129#0 5962129#1 5962129#2 5962129#3 5962129#4 5962129#5 593766965 gneE0 593766961 436291018 436291020#0 436291020#1 436291020#2 436291019 278328405#1 436291029"/>
    </vehicle>
    <vehicle id="bus66" type="bus_bus" depart="1347.22" departLane="best" departSpeed="max">
        <route edges="89922370#0 89922370#5 641705063#0 641705063#1 641705063#2 641705063#3 641705064#0 641705064#1 436291031 436291062 436291064#0 436291064#1 642361032"/>
    </vehicle>
    <vehicle id="bus67" type="bus_bus" depart="1367.63" departLane="best" departSpeed="max">
        <route edges="642337374#0 642337374#1 642337373 436291011 436291010 436291016#0 436291016#1 436291016#2 436291016#3 5962129#0 5962129#1 5962129#2 5962129#3 5962129#4 5962129#5 593766965 gneE0 593766960 593766962#0"/>
    </vehicle>
    <vehicle id="bus68" type="bus_bus" depart="1388.04" departLane="best" departSpeed="max">
        <route edges="-593766962#1 -593766960 593766961 436291018 641705063#0 641705063#1 641705063#2 641705063#3 641705064#0 641705064#1 436291031 436291062 436291064#0 436291064#1 642361032"/>
    </vehicle>
    <vehicle id="bus69" type="bus_bus" depart="1408.46" departLane="best" departSpeed="max">
        <route edges="-5955850#2 -5955850#1 -5955850#0 5962129#0 5962129#1 5962129#2 5962129#3 5962129#4 5962129#5 593766965 gneE0 593766960 593766962#0"/>
    </vehicle>
    <vehicle id="bus70" type="bus_bus" depart="1428.87" departLane="best" departSpeed="max">
        <route edges="6024091#0 -5955850#0 5962129#0 5962129#1 5962129#2 5962129#3 5962129#4 5962129#5 593766965 gneE0 593766961 436291018 436291020#0 436291020#1 436291020#2 436291019 278328405#1 436291029"/>
    </vehicle>
    <vehicle id="bus72" type="bus_bus" depart="1469.69" departLane="best" departSpeed="max">
        <route edges="6024091#0 -5955850#0 5962129#0 5962129#1 5962129#2 5962129#3 5962129#4 5962129#5 593766965 gneE0 593766961 436291018 436291020#0 436291020#1 436291020#2 436291019 278328405#1 436291029"/>
    </vehicle>
    <vehicle id="bus73" type="bus_bus" depart="1490.11" departLane="best" departSpeed="max">
        <route edges="6024091#0 -5955850#0 5962129#0 5962129#1 5962129#2 5962129#3 5962129#4 5962129#5 593766965 gneE0 593766961 436291018 436291020#0 436291020#1 436291020#2 436291019 278328405#1 436291029"/>
    </vehicle>
    <vehicle id="bus74" type="bus_bus" depart="1510.52" departLane="best" departSpeed="max">
        <route edges="-593766962#1 -593766960 gneE1 -593766965 -5962129#5 -5962129#4 -5962129#3 -5962129#2 -5962129#1 -5962129#0 5955850#0 5955850#1 5955850#2"/>
    </vehicle>
    <vehicle id="bus75" type="bus_bus" depart="1530.93" departLane="best" departSpeed="max">
        <route edges="89922370#0 89922370#5 641705063#0 641705063#1 641705063#2 641705063#3 641705064#0 641705064#1 436291031 436291062 436291064#0 436291064#1 642361032"/>
    </vehicle>
    <vehicle id="bus77" type="bus_bus" depart="1571.76" departLane="best" departSpeed="max">
        <route edges="642337374#0 642337374#1 642337373 436291011 436291010 436291016#0 436291016#1 436291016#2 436291016#3 5962129#0 5962129#1 5962129#2 5962129#3 5962129#4 5962129#5 593766965 gneE0 593766960 593766962#0"/>
    </vehicle>
    <vehicle id="bus78" type="bus_bus" depart="1592.17" departLane="best" departSpeed="max">
        <route edges="89922370#0 89922370#5 641705063#0 641705063#1 641705063#2 641705063#3 641705064#0 641705064#1 436291031 436291062 436291064#0 436291064#1 642361032"/>
    </vehicle>
    <vehicle id="bus79" type="bus_bus" depart="1612.58" departLane="best" departSpeed="max">
        <route edges="-5955850#2 -5955850#1 -5955850#0 5962129#0 5962129#1 5962129#2 5962129#3 5962129#4 5962129#5 593766965 gneE0 593766960 593766962#0"/>
    </vehicle>
    <vehicle id="bus82" type="bus_bus" depart="1673.82" departLane="best" departSpeed="max">
        <route edges="-5955850#2 -5955850#1 -5955850#0 5962129#0 5962129#1 5962129#2 5962129#3 5962129#4 5962129#5 593766965 gneE0 593766961 436291018 436291020#0 436291020#1 436291020#2 436291019 278328405#1 436291029"/>
    </vehicle>
    <vehicle id="bus83" type="bus_bus" depart="1694.23" departLane="best" departSpeed="max">
        <route edges="642337374#0 642337374#1 642337373 234953562 634644489 278328405#0 278328405#1 436291029"/>
    </vehicle>
    <vehicle id="bus84" type="bus_bus" depart="1714.64" departLane="best" departSpeed="max">
        <route edges="642337374#0 642337374#1 642337373 436291011 436291010 436291016#0 436291016#1 436291016#2 436291016#3 5962129#0 5962129#1 5962129#2 5962129#3 5962129#4 5962129#5 593766965 gneE0 593766960 593766962#0"/>
    </vehicle>
    <vehicle id="bus86" type="bus_bus" depart="1755.47" departLane="best" departSpeed="max">
        <route edges="-593766962#1 -593766960 593766961 436291018 641705063#0 641705063#1 641705063#2 641705063#3 641705064#0 641705064#1 436291031 436291062 436291064#0 436291064#1 642361032"/>
    </vehicle>
    <vehicle id="bus87" type="bus_bus" depart="1775.88" departLane="best" departSpeed="max">
        <route edges="89922370#0 89922370#5 641705063#0 641705063#1 641705063#2 641705063#3 641705064#0 641705064#1 436291031 436291062 436291064#0 436291064#1 642361032"/>
    </vehicle>
    <vehicle id="bus88" type="bus_bus" depart="1796.29" departLane="best" departSpeed="max">
        <route edges="-5955850#2 -5955850#1 -5955850#0 5962129#0 5962129#1 5962129#2 5962129#3 5962129#4 5962129#5 593766965 gneE0 593766961 436291018 436291020#0 436291020#1 436291020#2 436291019 278328405#1 436291029"/>
    </vehicle>
    <vehicle id="bus89" type="bus_bus" depart="1816.70" departLane="best" departSpeed="max">
        <route edges="-5955850#2 -5955850#1 -5955850#0 5962129#0 5962129#1 5962129#2 5962129#3 5962129#4 5962129#5 593766965 gneE0 593766960 593766962#0"/>
    </vehicle>
    <vehicle id="bus90" type="bus_bus" depart="1837.12" departLane="best" departSpeed="max">
        <route edges="-593766962#1 -593766960 gneE1 -593766965 -5962129#5 -5962129#4 -5962129#3 -5962129#2 -5962129#1 -5962129#0 5955850#0 5955850#1 5955850#2"/>
    </vehicle>
    <vehicle id="bus91" type="bus_bus" depart="1857.53" departLane="best" departSpeed="max">
        <route edges="-593766962#1 -593766960 gneE1 -593766965 -5962129#5 -5962129#4 -5962129#3 -5962129#2 -5962129#1 -5962129#0 5955850#0 5955850#1 5955850#2"/>
    </vehicle>
    <vehicle id="bus92" type="bus_bus" depart="1877.94" departLane="best" departSpeed="max">
        <route edges="89922370#0 89922370#5 641705063#0 641705063#1 641705063#2 641705063#3 641705064#0 641705064#1 436291031 436291062 436291064#0 436291064#1 642361032"/>
    </vehicle>
    <vehicle id="bus95" type="bus_bus" depart="1939.18" departLane="best" departSpeed="max">
        <route edges="-593766962#1 -593766960 gneE1 -593766965 -5962129#5 -5962129#4 -5962129#3 -5962129#2 -5962129#1 -5962129#0 5955850#0 5955850#1 5955850#2"/>
    </vehicle>
    <vehicle id="bus96" type="bus_bus" depart="1959.59" departLane="best" departSpeed="max">
        <route edges="6024091#0 -5955850#0 5962129#0 5962129#1 5962129#2 5962129#3 5962129#4 5962129#5 593766965 gneE0 593766961 436291018 436291020#0 436291020#1 436291020#2 436291019 278328405#1 436291029"/>
    </vehicle>
    <vehicle id="bus97" type="bus_bus" depart="1980.00" departLane="best" departSpeed="max">
        <route edges="-593766962#1 -593766960 gneE1 -593766965 -5962129#5 -5962129#4 -5962129#3 -5962129#2 -5962129#1 -5962129#0 5955850#0 5955850#1 5955850#2"/>
    </vehicle>
    <vehicle id="bus98" type="bus_bus" depart="2000.42" departLane="best" departSpeed="max">
        <route edges="-593766962#1 -593766960 gneE1 -593766965 -5962129#5 -5962129#4 -5962129#3 -5962129#2 -5962129#1 -5962129#0 5955850#0 5955850#1 5955850#2"/>
    </vehicle>
    <vehicle id="bus99" type="bus_bus" depart="2020.83" departLane="best" departSpeed="max">
        <route edges="89922370#0 89922370#5 641705063#0 641705063#1 641705063#2 641705063#3 641705064#0 641705064#1 436291031 436291062 436291064#0 436291064#1 642361032"/>
    </vehicle>
    <vehicle id="bus101" type="bus_bus" depart="2061.65" departLane="best" departSpeed="max">
        <route edges="-5955850#2 -5955850#1 -5955850#0 5962129#0 5962129#1 5962129#2 5962129#3 5962129#4 5962129#5 593766965 gneE0 593766960 593766962#0"/>
    </vehicle>
    <vehicle id="bus102" type="bus_bus" depart="2082.07" departLane="best" departSpeed="max">
        <route edges="6024091#0 -5955850#0 5962129#0 5962129#1 5962129#2 5962129#3 5962129#4 5962129#5 593766965 gneE0 593766961 436291018 436291020#0 436291020#1 436291020#2 436291019 278328405#1 436291029"/>
    </vehicle>
    <vehicle id="bus105" type="bus_bus" depart="2143.30" departLane="best" departSpeed="max">
        <route edges="-593766962#1 -593766960 593766961 436291018 641705063#0 641705063#1 641705063#2 641705063#3 641705064#0 641705064#1 436291031 436291062 436291064#0 436291064#1 642361032"/>
    </vehicle>
    <vehicle id="bus106" type="bus_bus" depart="2163.71" departLane="best" departSpeed="max">
        <route edges="-5955850#2 -5955850#1 -5955850#0 5962129#0 5962129#1 5962129#2 5962129#3 5962129#4 5962129#5 593766965 gneE0 593766961 436291018 436291020#0 436291020#1 436291020#2 436291019 278328405#1 436291029"/>
    </vehicle>
    <vehicle id="bus107" type="bus_bus" depart="2184.13" departLane="best" departSpeed="max">
        <route edges="6024091#0 -5955850#0 5962129#0 5962129#1 5962129#2 5962129#3 5962129#4 5962129#5 593766965 gneE0 593766961 436291018 436291020#0 436291020#1 436291020#2 436291019 278328405#1 436291029"/>
    </vehicle>
    <vehicle id="bus108" type="bus_bus" depart="2204.54" departLane="best" departSpeed="max">
        <route edges="89922370#0 89922370#5 641705063#0 641705063#1 641705063#2 641705063#3 641705064#0 641705064#1 436291031 436291016#0 436291016#1 436291016#2 436291016#3 5955850#0 5955850#1 5955850#2"/>
    </vehicle>
    <vehicle id="bus110" type="bus_bus" depart="2245.36" departLane="best" departSpeed="max">
        <route edges="-5955850#2 -5955850#1 -5955850#0 5962129#0 5962129#1 5962129#2 5962129#3 5962129#4 5962129#5 593766965 gneE0 593766961 436291018 436291020#0 436291020#1 436291020#2 436291019 278328405#1 436291029"/>
    </vehicle>
    <vehicle id="bus111" type="bus_bus" depart="2265.78" departLane="best" departSpeed="max">
        <route edges="89922370#0 89922370#5 641705063#0 641705063#1 641705063#2 641705063#3 641705064#0 641705064#1 436291031 436291016#0 436291016#1 436291016#2 436291016#3 5955850#0 5955850#1 5955850#2"/>
    </vehicle>
    <vehicle id="bus112" type="bus_bus" depart="2286.19" departLane="best" departSpeed="max">
        <route edges="89922370#0 89922370#5 641705063#0 641705063#1 641705063#2 641705063#3 641705064#0 641705064#1 436291031 436291016#0 436291016#1 436291016#2 436291016#3 5955850#0 5955850#1 5955850#2"/>
    </vehicle>
    <vehicle id="bus114" type="bus_bus" depart="2327.01" departLane="best" departSpeed="max">
        <route edges="642337374#0 642337374#1 642337373 436291011 436291010 436291016#0 436291016#1 436291016#2 436291016#3 5962129#0 5962129#1 5962129#2 5962129#3 5962129#4 5962129#5 593766965 gneE0 593766960 593766962#0"/>
    </vehicle>
    <vehicle id="bus116" type="bus_bus" depart="2367.84" departLane="best" departSpeed="max">
        <route edges="6024091#0 -5955850#0 5962129#0 5962129#1 5962129#2 5962129#3 5962129#4 5962129#5 593766965 gneE0 593766961 436291018 436291020#0 436291020#1 436291020#2 436291019 278328405#1 436291029"/>
    </vehicle>
    <vehicle id="bus117" type="bus_bus" depart="2388.25" departLane="best" departSpeed="max">
        <route edges="-5955850#2 -5955850#1 -5955850#0 5962129#0 5962129#1 5962129#2 5962129#3 5962129#4 5962129#5 593766965 gneE0 593766960 593766962#0"/>
    </vehicle>
    <vehicle id="bus118" type="bus_bus" depart="2408.66" departLane="best" departSpeed="max">
        <route edges="-5955850#2 -5955850#1 -5955850#0 5962129#0 5962129#1 5962129#2 5962129#3 5962129#4 5962129#5 593766965 gneE0 593766960 593766962#0"/>
    </vehicle>
    <vehicle id="bus119" type="bus_bus" depart="2429.08" departLane="best" departSpeed="max">
        <route edges="-593766962#1 -593766960 gneE1 -593766965 -5962129#5 -5962129#4 -5962129#3 -5962129#2 -5962129#1 -5962129#0 5955850#0 5955850#1 5955850#2"/>
    </vehicle>
    <vehicle id="bus121" type="bus_bus" depart="2469.90" departLane="best" departSpeed="max">
        <route edges="89922370#0 89922370#5 641705063#0 641705063#1 641705063#2 641705063#3 641705064#0 641705064#1 436291031 436291062 436291064#0 436291064#1 642361032"/>
    </vehicle>
    <vehicle id="bus122" type="bus_bus" depart="2490.31" departLane="best" departSpeed="max">
        <route edges="642337374#0 642337374#1 642337373 436291011 436291010 436291016#0 436291016#1 436291016#2 436291016#3 5962129#0 5962129#1 5962129#2 5962129#3 5962129#4 5962129#5 593766965 gneE0 593766960 593766962#0"/>
    </vehicle>
    <vehicle id="bus124" type="bus_bus" depart="2531.14" departLane="best" departSpeed="max">
        <route edges="89922370#0 89922370#5 641705063#0 641705063#1 641705063#2 641705063#3 641705064#0 641705064#1 436291031 436291062 436291064#0 436291064#1 642361032"/>
    </vehicle>
    <vehicle id="bus125" type="bus_bus" depart="2551.55" departLane="best" departSpeed="max">
        <route edges="-593766962#1 -593766960 593766961 436291018 641705063#0 641705063#1 641705063#2 641705063#3 641705064#0 641705064#1 436291031 436291062 436291064#0 436291064#1 642361032"/>
    </vehicle>
    <vehicle id="bus126" type="bus_bus" depart="2571.96" departLane="best" departSpeed="max">
        <route edges="-5955850#2 -5955850#1 -5955850#0 5962129#0 5962129#1 5962129#2 5962129#3 5962129#4 5962129#5 593766965 gneE0 593766960 593766962#0"/>
    </vehicle>
    <vehicle id="bus127" type="bus_bus" depart="2592.38" departLane="best" departSpeed="max">
        <route edges="6024091#0 -5955850#0 5962129#0 5962129#1 5962129#2 5962129#3 5962129#4 5962129#5 593766965 gneE0 593766961 436291018 436291020#0 436291020#1 436291020#2 436291019 278328405#1 436291029"/>
    </vehicle>
    <vehicle id="bus129" type="bus_bus" depart="2633.20" departLane="best" departSpeed="max">
        <route edges="-593766962#1 -593766960 593766961 436291018 641705063#0 641705063#1 641705063#2 641705063#3 641705064#0 641705064#1 436291031 436291062 436291064#0 436291064#1 642361032"/>
    </vehicle>
    <vehicle id="bus130" type="bus_bus" depart="2653.61" departLane="best" departSpeed="max">
        <route edges="642337374#0 642337374#1 642337373 436291011 436291010 436291016#0 436291016#1 436291016#2 436291016#3 5962129#0 5962129#1 5962129#2 5962129#3 5962129#4 5962129#5 593766965 gneE0 593766960 593766962#0"/>
    </vehicle>
    <vehicle id="bus131" type="bus_bus" depart="2674.03" departLane="best" departSpeed="max">
        <route edges="6024091#0 -5955850#0 5962129#0 5962129#1 5962129#2 5962129#3 5962129#4 5962129#5 593766965 gneE0 593766961 436291018 436291020#0 436291020#1 436291020#2 436291019 278328405#1 436291029"/>
    </vehicle>
    <vehicle id="bus132" type="bus_bus" depart="2694.44" departLane="best" departSpeed="max">
        <route edges="642337374#0 642337374#1 642337373 234953562 634644489 278328405#0 278328405#1 436291029"/>
    </vehicle>
    <vehicle id="bus133" type="bus_bus" depart="2714.85" departLane="best" departSpeed="max">
        <route edges="642337374#0 642337374#1 642337373 234953562 634644489 278328405#0 278328405#1 436291029"/>
    </vehicle>
    <vehicle id="bus134" type="bus_bus" depart="2735.26" departLane="best" departSpeed="max">
        <route edges="-593766962#1 -593766960 gneE1 -593766965 -5962129#5 -5962129#4 -5962129#3 -5962129#2 -5962129#1 -5962129#0 5955850#0 5955850#1 5955850#2"/>
    </vehicle>
    <vehicle id="bus135" type="bus_bus" depart="2755.67" departLane="best" departSpeed="max">
        <route edges="642337374#0 642337374#1 642337373 234953562 634644489 278328405#0 278328405#1 436291029"/>
    </vehicle>
    <vehicle id="bus136" type="bus_bus" depart="2776.09" departLane="best" departSpeed="max">
        <route edges="-5955850#2 -5955850#1 -5955850#0 5962129#0 5962129#1 5962129#2 5962129#3 5962129#4 5962129#5 593766965 gneE0 593766961 436291018 436291020#0 436291020#1 436291020#2 436291019 278328405#1 436291029"/>
    </vehicle>
    <vehicle id="bus137" type="bus_bus" depart="2796.50" departLane="best" departSpeed="max">