<?xml version="1.0" encoding="UTF-8"?>

<!-- generated on 06/08/20 17:40:04 by Eclipse SUMO duarouter Version 1.6.0
<configuration xmlns:xsi="http://www.w3.org/2001/XMLSchema-instance" xsi:noNamespaceSchemaLocation="http://sumo.dlr.de/xsd/duarouterConfiguration.xsd">

    <input>
        <net-file value="osm.net.xml"/>
        <route-files value="osm.truck.trips.xml"/>
    </input>

    <output>
        <output-file value="osm.truck.trips.xml.tmp"/>
        <write-trips value="true"/>
    </output>

    <time>
        <begin value="0"/>
        <end value="1800.0"/>
    </time>

    <report>
        <no-warnings value="true"/>
        <ignore-errors value="true"/>
        <no-step-log value="true"/>
    </report>

</configuration>
-->

<routes xmlns:xsi="http://www.w3.org/2001/XMLSchema-instance" xsi:noNamespaceSchemaLocation="http://sumo.dlr.de/xsd/routes_file.xsd">
    <vType id="truck_truck" vClass="truck"/>
    <trip id="truck0" type="truck_truck" depart="0.00" departLane="best" departSpeed="max" from="642337374#0" to="593766962#0"/>
    <trip id="truck1" type="truck_truck" depart="32.00" departLane="best" departSpeed="max" from="642337374#0" to="593766962#0"/>
    <trip id="truck2" type="truck_truck" depart="64.00" departLane="best" departSpeed="max" from="-5955850#2" to="593766962#0"/>
    <trip id="truck3" type="truck_truck" depart="96.00" departLane="best" departSpeed="max" from="89922370#0" to="642361032"/>
    <trip id="truck4" type="truck_truck" depart="128.00" departLane="best" departSpeed="max" from="89922370#0" to="642361032"/>
    <trip id="truck5" type="truck_truck" depart="160.00" departLane="best" departSpeed="max" from="-593766962#1" to="642361032"/>
    <trip id="truck7" type="truck_truck" depart="224.00" departLane="best" departSpeed="max" from="642337374#0" to="593766962#0"/>
    <trip id="truck9" type="truck_truck" depart="288.00" departLane="best" departSpeed="max" from="-5955850#2" to="436291029"/>
    <trip id="truck10" type="truck_truck" depart="320.00" departLane="best" departSpeed="max" from="89922370#0" to="5955850#2"/>
    <trip id="truck12" type="truck_truck" depart="384.00" departLane="best" departSpeed="max" from="642337374#0" to="593766962#0"/>
    <trip id="truck13" type="truck_truck" depart="416.00" departLane="best" departSpeed="max" from="-5955850#2" to="436291029"/>
    <trip id="truck14" type="truck_truck" depart="448.00" departLane="best" departSpeed="max" from="89922370#0" to="642361032"/>
    <trip id="truck15" type="truck_truck" depart="480.00" departLane="best" departSpeed="max" from="-593766962#1" to="5955850#2"/>
    <trip id="truck16" type="truck_truck" depart="512.00" departLane="best" departSpeed="max" from="-5955850#2" to="593766962#0"/>
    <trip id="truck18" type="truck_truck" depart="576.00" departLane="best" departSpeed="max" from="642337374#0" to="436291029"/>
    <trip id="truck19" type="truck_truck" depart="608.00" departLane="best" departSpeed="max" from="89922370#0" to="642361032"/>
    <trip id="truck21" type="truck_truck" depart="672.00" departLane="best" departSpeed="max" from="642337374#0" to="593766962#0"/>
    <trip id="truck23" type="truck_truck" depart="736.00" departLane="best" departSpeed="max" from="-593766962#1" to="642361032"/>
    <trip id="truck26" type="truck_truck" depart="832.00" departLane="best" departSpeed="max" from="-593766962#1" to="642361032"/>
    <trip id="truck27" type="truck_truck" depart="864.00" departLane="best" departSpeed="max" from="642337374#0" to="436291029"/>
    <trip id="truck28" type="truck_truck" depart="896.00" departLane="best" departSpeed="max" from="89922370#0" to="5955850#2"/>
    <trip id="truck29" type="truck_truck" depart="928.00" departLane="best" departSpeed="max" from="-593766962#1" to="642361032"/>
    <trip id="truck32" type="truck_truck" depart="1024.00" departLane="best" departSpeed="max" from="-593766962#1" to="5955850#2"/>
    <trip id="truck34" type="truck_truck" depart="1088.00" departLane="best" departSpeed="max" from="-5955850#2" to="593766962#0"/>
    <trip id="truck37" type="truck_truck" depart="1184.00" departLane="best" departSpeed="max" from="-5955850#2" to="593766962#0"/>
    <trip id="truck39" type="truck_truck" depart="1248.00" departLane="best" departSpeed="max" from="-593766962#1" to="5955850#2"/>
    <trip id="truck40" type="truck_truck" depart="1280.00" departLane="best" departSpeed="max" from="642337374#0" to="593766962#0"/>
    <trip id="truck41" type="truck_truck" depart="1312.00" departLane="best" departSpeed="max" from="89922370#0" to="642361032"/>
    <trip id="truck42" type="truck_truck" depart="1344.00" departLane="best" departSpeed="max" from="-5955850#2" to="436291029"/>
    <trip id="truck45" type="truck_truck" depart="1440.00" departLane="best" departSpeed="max" from="-5955850#2" to="436291029"/>
    <trip id="truck46" type="truck_truck" depart="1472.00" departLane="best" departSpeed="max" from="-593766962#1" to="642361032"/>
    <trip id="truck48" type="truck_truck" depart="1536.00" departLane="best" departSpeed="max" from="-5955850#2" to="436291029"/>
    <trip id="truck49" type="truck_truck" depart="1568.00" departLane="best" departSpeed="max" from="-593766962#1" to="642361032"/>
    <trip id="truck50" type="truck_truck" depart="1600.00" departLane="best" departSpeed="max" from="-593766962#1" to="642361032"/>
    <trip id="truck51" type="truck_truck" depart="1632.00" departLane="best" departSpeed="max" from="-593766962#1" to="642361032"/>
    <trip id="truck52" type="truck_truck" depart="1664.00" departLane="best" departSpeed="max" from="-593766962#1" to="642361032"/>
    <trip id="truck54" type="truck_truck" depart="1728.00" departLane="best" departSpeed="max" from="-593766962#1" to="5955850#2"/>
    <trip id="truck55" type="truck_truck" depart="1760.00" departLane="best" departSpeed="max" from="-5955850#2" to="593766962#0"/>
    <trip id="truck56" type="truck_truck" depart="1792.00" departLane="best" departSpeed="max" from="642337374#0" to="436291029"/>
</routes>
