<?xml version="1.0" encoding="UTF-8"?>

<!-- generated on 06/08/20 13:08:34 by Eclipse SUMO duarouter Version 1.6.0
<configuration xmlns:xsi="http://www.w3.org/2001/XMLSchema-instance" xsi:noNamespaceSchemaLocation="http://sumo.dlr.de/xsd/duarouterConfiguration.xsd">

    <input>
        <net-file value="osm.net.xml"/>
        <route-files value="osm.truck.trips.xml"/>
    </input>

    <output>
        <output-file value="osm.truck.trips.xml.tmp"/>
        <write-trips value="true"/>
    </output>

    <time>
        <begin value="0"/>
        <end value="1800.0"/>
    </time>

    <report>
        <no-warnings value="true"/>
        <ignore-errors value="true"/>
        <no-step-log value="true"/>
    </report>

</configuration>
-->

<routes xmlns:xsi="http://www.w3.org/2001/XMLSchema-instance" xsi:noNamespaceSchemaLocation="http://sumo.dlr.de/xsd/routes_file.xsd">
    <vType id="truck_truck" vClass="truck"/>
    <trip id="truck0" type="truck_truck" depart="0.00" departLane="best" departSpeed="max" from="642337374#0" to="593766962#0"/>
    <trip id="truck1" type="truck_truck" depart="25.00" departLane="best" departSpeed="max" from="642337374#0" to="593766962#0"/>
    <trip id="truck2" type="truck_truck" depart="50.00" departLane="best" departSpeed="max" from="-5955850#2" to="593766962#0"/>
    <trip id="truck3" type="truck_truck" depart="75.00" departLane="best" departSpeed="max" from="89922370#0" to="642361032"/>
    <trip id="truck4" type="truck_truck" depart="100.00" departLane="best" departSpeed="max" from="89922370#0" to="642361032"/>
    <trip id="truck5" type="truck_truck" depart="125.00" departLane="best" departSpeed="max" from="-593766962#1" to="642361032"/>
    <trip id="truck7" type="truck_truck" depart="175.00" departLane="best" departSpeed="max" from="642337374#0" to="593766962#0"/>
    <trip id="truck9" type="truck_truck" depart="225.00" departLane="best" departSpeed="max" from="-5955850#2" to="436291029"/>
    <trip id="truck10" type="truck_truck" depart="250.00" departLane="best" departSpeed="max" from="89922370#0" to="5955850#2"/>
    <trip id="truck12" type="truck_truck" depart="300.00" departLane="best" departSpeed="max" from="642337374#0" to="593766962#0"/>
    <trip id="truck13" type="truck_truck" depart="325.00" departLane="best" departSpeed="max" from="-5955850#2" to="436291029"/>
    <trip id="truck14" type="truck_truck" depart="350.00" departLane="best" departSpeed="max" from="89922370#0" to="642361032"/>
    <trip id="truck15" type="truck_truck" depart="375.00" departLane="best" departSpeed="max" from="-593766962#1" to="5955850#2"/>
    <trip id="truck16" type="truck_truck" depart="400.00" departLane="best" departSpeed="max" from="-5955850#2" to="593766962#0"/>
    <trip id="truck18" type="truck_truck" depart="450.00" departLane="best" departSpeed="max" from="642337374#0" to="436291029"/>
    <trip id="truck19" type="truck_truck" depart="475.00" departLane="best" departSpeed="max" from="89922370#0" to="642361032"/>
    <trip id="truck21" type="truck_truck" depart="525.00" departLane="best" departSpeed="max" from="642337374#0" to="593766962#0"/>
    <trip id="truck23" type="truck_truck" depart="575.00" departLane="best" departSpeed="max" from="-593766962#1" to="642361032"/>
    <trip id="truck26" type="truck_truck" depart="650.00" departLane="best" departSpeed="max" from="-593766962#1" to="642361032"/>
    <trip id="truck27" type="truck_truck" depart="675.00" departLane="best" departSpeed="max" from="642337374#0" to="436291029"/>
    <trip id="truck28" type="truck_truck" depart="700.00" departLane="best" departSpeed="max" from="89922370#0" to="5955850#2"/>
    <trip id="truck29" type="truck_truck" depart="725.00" departLane="best" departSpeed="max" from="-593766962#1" to="642361032"/>
    <trip id="truck32" type="truck_truck" depart="800.00" departLane="best" departSpeed="max" from="-593766962#1" to="5955850#2"/>
    <trip id="truck34" type="truck_truck" depart="850.00" departLane="best" departSpeed="max" from="-5955850#2" to="593766962#0"/>
    <trip id="truck37" type="truck_truck" depart="925.00" departLane="best" departSpeed="max" from="-5955850#2" to="593766962#0"/>
    <trip id="truck39" type="truck_truck" depart="975.00" departLane="best" departSpeed="max" from="-593766962#1" to="5955850#2"/>
    <trip id="truck40" type="truck_truck" depart="1000.00" departLane="best" departSpeed="max" from="642337374#0" to="593766962#0"/>
    <trip id="truck41" type="truck_truck" depart="1025.00" departLane="best" departSpeed="max" from="89922370#0" to="642361032"/>
    <trip id="truck42" type="truck_truck" depart="1050.00" departLane="best" departSpeed="max" from="-5955850#2" to="436291029"/>
    <trip id="truck45" type="truck_truck" depart="1125.00" departLane="best" departSpeed="max" from="-5955850#2" to="436291029"/>
    <trip id="truck46" type="truck_truck" depart="1150.00" departLane="best" departSpeed="max" from="-593766962#1" to="642361032"/>
    <trip id="truck48" type="truck_truck" depart="1200.00" departLane="best" departSpeed="max" from="-5955850#2" to="436291029"/>
    <trip id="truck49" type="truck_truck" depart="1225.00" departLane="best" departSpeed="max" from="-593766962#1" to="642361032"/>
    <trip id="truck50" type="truck_truck" depart="1250.00" departLane="best" departSpeed="max" from="-593766962#1" to="642361032"/>
    <trip id="truck51" type="truck_truck" depart="1275.00" departLane="best" departSpeed="max" from="-593766962#1" to="642361032"/>
    <trip id="truck52" type="truck_truck" depart="1300.00" departLane="best" departSpeed="max" from="-593766962#1" to="642361032"/>
    <trip id="truck54" type="truck_truck" depart="1350.00" departLane="best" departSpeed="max" from="-593766962#1" to="5955850#2"/>
    <trip id="truck55" type="truck_truck" depart="1375.00" departLane="best" departSpeed="max" from="-5955850#2" to="593766962#0"/>
    <trip id="truck56" type="truck_truck" depart="1400.00" departLane="best" departSpeed="max" from="642337374#0" to="436291029"/>
    <trip id="truck58" type="truck_truck" depart="1450.00" departLane="best" departSpeed="max" from="642337374#0" to="436291029"/>
    <trip id="truck59" type="truck_truck" depart="1475.00" departLane="best" departSpeed="max" from="642337374#0" to="593766962#0"/>
    <trip id="truck60" type="truck_truck" depart="1500.00" departLane="best" departSpeed="max" from="642337374#0" to="436291029"/>
    <trip id="truck61" type="truck_truck" depart="1525.00" departLane="best" departSpeed="max" from="-593766962#1" to="642361032"/>
    <trip id="truck62" type="truck_truck" depart="1550.00" departLane="best" departSpeed="max" from="-593766962#1" to="642361032"/>
    <trip id="truck63" type="truck_truck" depart="1575.00" departLane="best" departSpeed="max" from="89922370#0" to="642361032"/>
    <trip id="truck66" type="truck_truck" depart="1650.00" departLane="best" departSpeed="max" from="642337374#0" to="436291029"/>
    <trip id="truck67" type="truck_truck" depart="1675.00" departLane="best" departSpeed="max" from="-5955850#2" to="436291029"/>
    <trip id="truck69" type="truck_truck" depart="1725.00" departLane="best" departSpeed="max" from="89922370#0" to="5955850#2"/>
    <trip id="truck71" type="truck_truck" depart="1775.00" departLane="best" departSpeed="max" from="-5955850#2" to="436291029"/>
</routes>
