<?xml version="1.0" encoding="UTF-8"?>

<!-- generated on 06/08/20 17:40:01 by Eclipse SUMO duarouter Version 1.6.0
<configuration xmlns:xsi="http://www.w3.org/2001/XMLSchema-instance" xsi:noNamespaceSchemaLocation="http://sumo.dlr.de/xsd/duarouterConfiguration.xsd">

    <input>
        <net-file value="osm.net.xml"/>
        <route-files value="osm.bicycle.trips.xml"/>
    </input>

    <output>
        <output-file value="osm.bicycle.trips.xml.tmp"/>
        <write-trips value="true"/>
    </output>

    <time>
        <begin value="0"/>
        <end value="1800.0"/>
    </time>

    <report>
        <no-warnings value="true"/>
        <ignore-errors value="true"/>
        <no-step-log value="true"/>
    </report>

</configuration>
-->

<routes xmlns:xsi="http://www.w3.org/2001/XMLSchema-instance" xsi:noNamespaceSchemaLocation="http://sumo.dlr.de/xsd/routes_file.xsd">
    <vType id="bike_bicycle" vClass="bicycle"/>
    <trip id="bike0" type="bike_bicycle" depart="0.00" departLane="best" from="578934718#2" to="-419814433#0"/>
    <trip id="bike1" type="bike_bicycle" depart="10.00" departLane="best" from="-578942372#1" to="-578942372#1"/>
    <trip id="bike2" type="bike_bicycle" depart="20.00" departLane="best" from="578942367#0" to="578942357"/>
    <trip id="bike4" type="bike_bicycle" depart="40.00" departLane="best" departSpeed="max" from="419814433#0" to="-419814433#0"/>
    <trip id="bike5" type="bike_bicycle" depart="50.00" departLane="best" departSpeed="max" from="-578942364" to="578934689"/>
    <trip id="bike7" type="bike_bicycle" depart="70.00" departLane="best" from="578934722" to="578934699"/>
    <trip id="bike8" type="bike_bicycle" depart="80.00" departLane="best" departSpeed="max" from="-578942364" to="578934717#1"/>
    <trip id="bike9" type="bike_bicycle" depart="90.00" departLane="best" departSpeed="max" from="578942375" to="-184711460"/>
    <trip id="bike10" type="bike_bicycle" depart="100.00" departLane="best" departSpeed="max" from="578942375" to="578942360#1"/>
    <trip id="bike11" type="bike_bicycle" depart="110.00" departLane="best" from="-5962129#4" to="-578934723"/>
    <trip id="bike12" type="bike_bicycle" depart="120.00" departLane="best" from="642751754#0" to="36054466#3"/>
    <trip id="bike13" type="bike_bicycle" depart="130.00" departLane="best" departSpeed="max" from="-578934699" to="-578934700#1"/>
    <trip id="bike14" type="bike_bicycle" depart="140.00" departLane="best" from="5962129#3" to="578934718#0"/>
    <trip id="bike15" type="bike_bicycle" depart="150.00" departLane="best" departSpeed="max" from="578942375" to="578942364"/>
    <trip id="bike17" type="bike_bicycle" depart="170.00" departLane="best" from="36054466#1" to="578934700#1"/>
    <trip id="bike18" type="bike_bicycle" depart="180.00" departLane="best" from="5955850#0" to="578934719"/>
    <trip id="bike19" type="bike_bicycle" depart="190.00" departLane="best" from="6024091#2" to="578934713#1"/>
    <trip id="bike20" type="bike_bicycle" depart="200.00" departLane="best" from="578942360#1" to="-578605861#0"/>
    <trip id="bike21" type="bike_bicycle" depart="210.00" departLane="best" from="-578942365" to="-89927838#0"/>
    <trip id="bike23" type="bike_bicycle" depart="230.00" departLane="best" from="-578934700#1" to="-5962129#4"/>
    <trip id="bike24" type="bike_bicycle" depart="240.00" departLane="best" from="578934718#1" to="36054466#8"/>
    <trip id="bike25" type="bike_bicycle" depart="250.00" departLane="best" from="36054466#0" to="-578942371#2"/>
    <trip id="bike26" type="bike_bicycle" depart="260.00" departLane="best" from="-578942372#0" to="641705146#1"/>
    <trip id="bike27" type="bike_bicycle" depart="270.00" departLane="best" from="578934722" to="578934718#1"/>
    <trip id="bike28" type="bike_bicycle" depart="280.00" departLane="best" departSpeed="max" from="-578942331" to="578942364"/>
    <trip id="bike29" type="bike_bicycle" depart="290.00" departLane="best" from="-578934726" to="419814433#2"/>
    <trip id="bike30" type="bike_bicycle" depart="300.00" departLane="best" from="89927838#3" to="578934726"/>
    <trip id="bike32" type="bike_bicycle" depart="320.00" departLane="best" from="5962129#2" to="578942370"/>
    <trip id="bike33" type="bike_bicycle" depart="330.00" departLane="best" from="-578942365" to="-419814433#1"/>
    <trip id="bike34" type="bike_bicycle" depart="340.00" departLane="best" departSpeed="max" from="-5955850#2" to="-5962129#2"/>
    <trip id="bike35" type="bike_bicycle" depart="350.00" departLane="best" from="-578942358" to="642337372"/>
    <trip id="bike36" type="bike_bicycle" depart="360.00" departLane="best" from="6024091#5" to="278328405#1"/>
    <trip id="bike37" type="bike_bicycle" depart="370.00" departLane="best" from="578934723" to="436291011"/>
    <trip id="bike38" type="bike_bicycle" depart="380.00" departLane="best" from="641705065" to="436291031"/>
    <trip id="bike39" type="bike_bicycle" depart="390.00" departLane="best" from="-578942371#2" to="-593766965"/>
    <trip id="bike40" type="bike_bicycle" depart="400.00" departLane="best" departSpeed="max" from="578934692" to="-5962129#1"/>
    <trip id="bike41" type="bike_bicycle" depart="410.00" departLane="best" departSpeed="max" from="578934709#0" to="634644489"/>
    <trip id="bike42" type="bike_bicycle" depart="420.00" departLane="best" from="36054466#6" to="-578942372#1"/>
    <trip id="bike43" type="bike_bicycle" depart="430.00" departLane="best" from="gneE1" to="578934690"/>
    <trip id="bike44" type="bike_bicycle" depart="440.00" departLane="best" departSpeed="max" from="-578934699" to="-578605861#0"/>
    <trip id="bike45" type="bike_bicycle" depart="450.00" departLane="best" departSpeed="max" from="-578934709#1" to="578934723"/>
    <trip id="bike46" type="bike_bicycle" depart="460.00" departLane="best" from="578942372#0" to="436291016#9"/>
    <trip id="bike48" type="bike_bicycle" depart="480.00" departLane="best" from="gneE1" to="578934691#1"/>
    <trip id="bike49" type="bike_bicycle" depart="490.00" departLane="best" from="89922370#5" to="5962129#3"/>
    <trip id="bike50" type="bike_bicycle" depart="500.00" departLane="best" from="-419814433#1" to="578942363"/>
    <trip id="bike51" type="bike_bicycle" depart="510.00" departLane="best" from="578942354#0" to="578934698"/>
    <trip id="bike52" type="bike_bicycle" depart="520.00" departLane="best" from="-578942372#0" to="578934726"/>
    <trip id="bike53" type="bike_bicycle" depart="530.00" departLane="best" departSpeed="max" from="-578934709#1" to="436291019"/>
    <trip id="bike55" type="bike_bicycle" depart="550.00" departLane="best" from="6024091#5" to="-5962129#1"/>
    <trip id="bike56" type="bike_bicycle" depart="560.00" departLane="best" departSpeed="max" from="436291021#0" to="-578942367#0"/>
    <trip id="bike57" type="bike_bicycle" depart="570.00" departLane="best" from="641705064#0" to="5962129#5"/>
    <trip id="bike58" type="bike_bicycle" depart="580.00" departLane="best" from="-593766965" to="578934724#2"/>
    <trip id="bike59" type="bike_bicycle" depart="590.00" departLane="best" from="578934713#0" to="-578934723"/>
    <trip id="bike60" type="bike_bicycle" depart="600.00" departLane="best" from="578942369#0" to="578934699"/>
    <trip id="bike61" type="bike_bicycle" depart="610.00" departLane="best" from="578942371#0" to="578934691#1"/>
    <trip id="bike62" type="bike_bicycle" depart="620.00" departLane="best" from="-184711458" to="36054466#1"/>
    <trip id="bike63" type="bike_bicycle" depart="630.00" departLane="best" from="-419814433#2" to="641705146#0"/>
    <trip id="bike64" type="bike_bicycle" depart="640.00" departLane="best" from="623099335" to="5955850#0"/>
    <trip id="bike65" type="bike_bicycle" depart="650.00" departLane="best" from="-5955850#0" to="-578605861#2"/>
    <trip id="bike66" type="bike_bicycle" depart="660.00" departLane="best" from="623099335" to="642337373"/>
    <trip id="bike69" type="bike_bicycle" depart="690.00" departLane="best" from="578942369#1" to="-578934717#0"/>
    <trip id="bike70" type="bike_bicycle" depart="700.00" departLane="best" from="436291018" to="578934700#1"/>
    <trip id="bike71" type="bike_bicycle" depart="710.00" departLane="best" from="-578942371#2" to="5962129#5"/>
    <trip id="bike72" type="bike_bicycle" depart="720.00" departLane="best" departSpeed="max" from="419814433#0" to="-578942371#2"/>
    <trip id="bike74" type="bike_bicycle" depart="740.00" departLane="best" departSpeed="max" from="-578942357" to="278328405#1"/>
    <trip id="bike75" type="bike_bicycle" depart="750.00" departLane="best" from="gneE1" to="578942331"/>
    <trip id="bike76" type="bike_bicycle" depart="760.00" departLane="best" from="419814433#4" to="578934690"/>
    <trip id="bike77" type="bike_bicycle" depart="770.00" departLane="best" from="-578934717#0" to="-578942372#2"/>
    <trip id="bike78" type="bike_bicycle" depart="780.00" departLane="best" from="-5962129#3" to="578934717#0"/>
    <trip id="bike79" type="bike_bicycle" depart="790.00" departLane="best" from="-578942365" to="-578942372#1"/>
    <trip id="bike81" type="bike_bicycle" depart="810.00" departLane="best" from="-578942365" to="641705063#1"/>
    <trip id="bike82" type="bike_bicycle" depart="820.00" departLane="best" from="5962129#5" to="-578605862#0"/>
    <trip id="bike83" type="bike_bicycle" depart="830.00" departLane="best" from="-578942367#1" to="578942354#1"/>
    <trip id="bike84" type="bike_bicycle" depart="840.00" departLane="best" from="-578942358" to="-578934718#0"/>
    <trip id="bike85" type="bike_bicycle" depart="850.00" departLane="best" from="642337373" to="578934713#0"/>
    <trip id="bike86" type="bike_bicycle" depart="860.00" departLane="best" from="436291018" to="578942371#1"/>
    <trip id="bike87" type="bike_bicycle" depart="870.00" departLane="best" departSpeed="max" from="578942375" to="-578942367#2"/>
    <trip id="bike88" type="bike_bicycle" depart="880.00" departLane="best" departSpeed="max" from="-578934699" to="436291018"/>
    <trip id="bike89" type="bike_bicycle" depart="890.00" departLane="best" departSpeed="max" from="419814433#0" to="436291064#1"/>
    <trip id="bike90" type="bike_bicycle" depart="900.00" departLane="best" from="578942365" to="578942355"/>
    <trip id="bike91" type="bike_bicycle" depart="910.00" departLane="best" departSpeed="max" from="89927838#0" to="-578934700#1"/>
    <trip id="bike92" type="bike_bicycle" depart="920.00" departLane="best" from="36054466#7" to="36054466#3"/>
    <trip id="bike93" type="bike_bicycle" depart="930.00" departLane="best" from="6024091#2" to="-593766965"/>
    <trip id="bike94" type="bike_bicycle" depart="940.00" departLane="best" departSpeed="max" from="-578942344" to="436291029"/>
    <trip id="bike95" type="bike_bicycle" depart="950.00" departLane="best" departSpeed="max" from="419814433#0" to="-5962129#4"/>
    <trip id="bike96" type="bike_bicycle" depart="960.00" departLane="best" from="-578942370" to="641705064#0"/>
    <trip id="bike97" type="bike_bicycle" depart="970.00" departLane="best" from="436291010" to="5962129#3"/>
    <trip id="bike98" type="bike_bicycle" depart="980.00" departLane="best" departSpeed="max" from="578605862#0" to="-578605861#0"/>
    <trip id="bike99" type="bike_bicycle" depart="990.00" departLane="best" from="gneE1" to="5955850#1"/>
    <trip id="bike100" type="bike_bicycle" depart="1000.00" departLane="best" departSpeed="max" from="89922370#0" to="641705065"/>
    <trip id="bike101" type="bike_bicycle" depart="1010.00" departLane="best" from="5962129#3" to="-578942355"/>
    <trip id="bike102" type="bike_bicycle" depart="1020.00" departLane="best" from="436291020#0" to="-578942372#0"/>
    <trip id="bike103" type="bike_bicycle" depart="1030.00" departLane="best" from="36054466#7" to="-578605861#2"/>
    <trip id="bike104" type="bike_bicycle" depart="1040.00" departLane="best" from="36054466#1" to="89927838#3"/>
    <trip id="bike105" type="bike_bicycle" depart="1050.00" departLane="best" from="-578942371#2" to="578942371#1"/>
    <trip id="bike106" type="bike_bicycle" depart="1060.00" departLane="best" from="436291013" to="436291016#9"/>
    <trip id="bike107" type="bike_bicycle" depart="1070.00" departLane="best" from="642751754#0" to="gneE1"/>
    <trip id="bike109" type="bike_bicycle" depart="1090.00" departLane="best" from="-578934723" to="-89927838#3"/>
    <trip id="bike110" type="bike_bicycle" depart="1100.00" departLane="best" departSpeed="max" from="89922370#0" to="578934716"/>
    <trip id="bike113" type="bike_bicycle" depart="1130.00" departLane="best" from="436291031" to="5962129#0"/>
    <trip id="bike114" type="bike_bicycle" depart="1140.00" departLane="best" from="-578934723" to="642361032"/>
    <trip id="bike116" type="bike_bicycle" depart="1160.00" departLane="best" departSpeed="max" from="578934711" to="578942357"/>
    <trip id="bike117" type="bike_bicycle" depart="1170.00" departLane="best" from="-578942367#0" to="-578934711"/>
    <trip id="bike118" type="bike_bicycle" depart="1180.00" departLane="best" from="641705063#0" to="-593766965"/>
    <trip id="bike119" type="bike_bicycle" depart="1190.00" departLane="best" departSpeed="max" from="578934711" to="578934722"/>
    <trip id="bike120" type="bike_bicycle" depart="1200.00" departLane="best" departSpeed="max" from="419814433#0" to="578934716"/>
    <trip id="bike121" type="bike_bicycle" depart="1210.00" departLane="best" departSpeed="max" from="573865733#1" to="641705146#1"/>
    <trip id="bike122" type="bike_bicycle" depart="1220.00" departLane="best" departSpeed="max" from="-578942357" to="578942363"/>
    <trip id="bike123" type="bike_bicycle" depart="1230.00" departLane="best" from="-578942367#1" to="436291011"/>
    <trip id="bike124" type="bike_bicycle" depart="1240.00" departLane="best" from="578934726" to="234953562"/>
    <trip id="bike125" type="bike_bicycle" depart="1250.00" departLane="best" departSpeed="max" from="-5955850#2" to="578942368#0"/>
    <trip id="bike127" type="bike_bicycle" depart="1270.00" departLane="best" from="gneE1" to="gneE1"/>
    <trip id="bike129" type="bike_bicycle" depart="1290.00" departLane="best" from="-578942371#2" to="641705146#0"/>
    <trip id="bike130" type="bike_bicycle" depart="1300.00" departLane="best" from="623099335" to="6024091#3"/>
    <trip id="bike131" type="bike_bicycle" depart="1310.00" departLane="best" from="36054466#0" to="-578934726"/>
    <trip id="bike132" type="bike_bicycle" depart="1320.00" departLane="best" from="5955850#1" to="578942361#0"/>
    <trip id="bike133" type="bike_bicycle" depart="1330.00" departLane="best" from="578934713#1" to="89927838#3"/>
    <trip id="bike134" type="bike_bicycle" depart="1340.00" departLane="best" from="578934723" to="-184711460"/>
    <trip id="bike135" type="bike_bicycle" depart="1350.00" departLane="best" from="593766960" to="-89927838#3"/>
    <trip id="bike136" type="bike_bicycle" depart="1360.00" departLane="best" from="578934724#2" to="641705146#1"/>
    <trip id="bike137" type="bike_bicycle" depart="1370.00" departLane="best" from="-578934718#0" to="-578934711"/>
    <trip id="bike138" type="bike_bicycle" depart="1380.00" departLane="best" departSpeed="max" from="-578934709#1" to="578934700#1"/>
    <trip id="bike139" type="bike_bicycle" depart="1390.00" departLane="best" from="-578942372#1" to="578934718#1"/>
    <trip id="bike140" type="bike_bicycle" depart="1400.00" departLane="best" from="578942361#1" to="-578942371#1"/>
    <trip id="bike141" type="bike_bicycle" depart="1410.00" departLane="best" from="578934718#1" to="-5962129#2"/>
    <trip id="bike142" type="bike_bicycle" depart="1420.00" departLane="best" from="436291020#2" to="641705063#1"/>
    <trip id="bike143" type="bike_bicycle" depart="1430.00" departLane="best" from="5962129#2" to="-578934698"/>
    <trip id="bike144" type="bike_bicycle" depart="1440.00" departLane="best" departSpeed="max" from="419814433#0" to="-5962129#4"/>
    <trip id="bike145" type="bike_bicycle" depart="1450.00" departLane="best" from="-184711458" to="578942369#1"/>
    <trip id="bike146" type="bike_bicycle" depart="1460.00" departLane="best" from="578934718#2" to="-5962129#1"/>
    <trip id="bike147" type="bike_bicycle" depart="1470.00" departLane="best" from="578942367#1" to="578934700#1"/>
    <trip id="bike148" type="bike_bicycle" depart="1480.00" departLane="best" from="419814433#1" to="-184711460"/>
    <trip id="bike150" type="bike_bicycle" depart="1500.00" departLane="best" from="641705063#3" to="578934699"/>
    <trip id="bike151" type="bike_bicycle" depart="1510.00" departLane="best" from="5955850#1" to="578934716"/>
    <trip id="bike152" type="bike_bicycle" depart="1520.00" departLane="best" from="-578934718#2" to="-578934717#0"/>
    <trip id="bike153" type="bike_bicycle" depart="1530.00" departLane="best" from="-5955850#1" to="641705063#0"/>
    <trip id="bike154" type="bike_bicycle" depart="1540.00" departLane="best" from="578942372#1" to="5962129#3"/>
    <trip id="bike155" type="bike_bicycle" depart="1550.00" departLane="best" from="641705063#2" to="-578942371#2"/>
    <trip id="bike156" type="bike_bicycle" depart="1560.00" departLane="best" from="-578942370" to="-578934709#0"/>
    <trip id="bike157" type="bike_bicycle" depart="1570.00" departLane="best" from="578942371#1" to="6024091#5"/>
    <trip id="bike158" type="bike_bicycle" depart="1580.00" departLane="best" from="36054466#8" to="578934722"/>
    <trip id="bike159" type="bike_bicycle" depart="1590.00" departLane="best" from="-578934723" to="641705146#0"/>
    <trip id="bike160" type="bike_bicycle" depart="1600.00" departLane="best" from="6024091#2" to="642751754#1"/>
    <trip id="bike161" type="bike_bicycle" depart="1610.00" departLane="best" departSpeed="max" from="578942375" to="6024091#3"/>
    <trip id="bike162" type="bike_bicycle" depart="1620.00" departLane="best" from="-419814433#4" to="578942367#0"/>
    <trip id="bike163" type="bike_bicycle" depart="1630.00" departLane="best" from="-5962129#2" to="641705146#0"/>
    <trip id="bike164" type="bike_bicycle" depart="1640.00" departLane="best" from="578942372#2" to="5962129#4"/>
    <trip id="bike165" type="bike_bicycle" depart="1650.00" departLane="best" departSpeed="max" from="578942375" to="-5962129#2"/>
    <trip id="bike166" type="bike_bicycle" depart="1660.00" departLane="best" from="578942371#2" to="-578934709#0"/>
    <trip id="bike167" type="bike_bicycle" depart="1670.00" departLane="best" from="6024091#5" to="5962129#3"/>
    <trip id="bike168" type="bike_bicycle" depart="1680.00" departLane="best" departSpeed="max" from="-578942364" to="593766961"/>
    <trip id="bike169" type="bike_bicycle" depart="1690.00" departLane="best" from="436291016#0" to="278328405#0"/>
    <trip id="bike170" type="bike_bicycle" depart="1700.00" departLane="best" from="578942372#1" to="-578942372#2"/>
    <trip id="bike171" type="bike_bicycle" depart="1710.00" departLane="best" from="-419814433#4" to="-578942370"/>
    <trip id="bike172" type="bike_bicycle" depart="1720.00" departLane="best" from="-5962129#2" to="5962129#4"/>
    <trip id="bike173" type="bike_bicycle" depart="1730.00" departLane="best" departSpeed="max" from="89922370#0" to="-5962129#4"/>
    <trip id="bike175" type="bike_bicycle" depart="1750.00" departLane="best" departSpeed="max" from="89927838#0" to="578934698"/>
    <trip id="bike176" type="bike_bicycle" depart="1760.00" departLane="best" departSpeed="max" from="642337374#0" to="-578934711"/>
    <trip id="bike177" type="bike_bicycle" depart="1770.00" departLane="best" from="89922370#5" to="-578942367#0"/>
    <trip id="bike178" type="bike_bicycle" depart="1780.00" departLane="best" departSpeed="max" from="89922370#0" to="-5962129#2"/>
    <trip id="bike179" type="bike_bicycle" depart="1790.00" departLane="best" departSpeed="max" from="-578934709#1" to="436291019"/>
</routes>
