<?xml version="1.0" encoding="UTF-8"?>
<!-- generated on 2020-06-02 10:25:51.955882 by randomTrips.py UNKNOWN
  options: -n osm.net.xml <doubleminus>seed 42 <doubleminus>fringe-factor 1 -p 2.630591875 -o osm.pedestrian.trips.xml -e 1800 -r osm.pedestrian.rou.xml <doubleminus>vehicle-class pedestrian <doubleminus>pedestrians <doubleminus>prefix ped <doubleminus>max-distance 2000
-->
<routes xmlns:xsi="http://www.w3.org/2001/XMLSchema-instance" xsi:noNamespaceSchemaLocation="http://sumo.dlr.de/xsd/routes_file.xsd">
    <vType id="ped_pedestrian" vClass="pedestrian"/>
    <person id="ped0" depart="0.00" type="ped_pedestrian">
        <walk from="578934723" to="-419814433#1"/>
    </person>
    <person id="ped1" depart="2.63" type="ped_pedestrian">
        <walk from="-5955850#0" to="-578942371#0"/>
    </person>
    <person id="ped2" depart="5.26" type="ped_pedestrian">
        <walk from="578942365" to="578942354#0"/>
    </person>
    <person id="ped3" depart="7.89" type="ped_pedestrian">
        <walk from="634644489" to="-578934698"/>
    </person>
    <person id="ped4" depart="10.52" type="ped_pedestrian">
        <walk from="436291011" to="-419814433#2"/>
    </person>
    <person id="ped5" depart="13.15" type="ped_pedestrian">
        <walk from="-578942370" to="578605861#1"/>
    </person>
    <person id="ped6" depart="15.78" type="ped_pedestrian">
        <walk from="-419814433#2" to="-578942365"/>
    </person>
    <person id="ped7" depart="18.41" type="ped_pedestrian">
        <walk from="578934724#2" to="578934691#1"/>
    </person>
    <person id="ped8" depart="21.04" type="ped_pedestrian">
        <walk from="-578942370" to="578934713#0"/>
    </person>
    <person id="ped9" depart="23.68" type="ped_pedestrian">
        <walk from="578942375" to="-184711460"/>
    </person>
    <person id="ped10" depart="26.31" type="ped_pedestrian">
        <walk from="578942372#2" to="578942360#0"/>
    </person>
    <person id="ped11" depart="28.94" type="ped_pedestrian">
        <walk from="278328405#1" to="-578934723"/>
    </person>
    <person id="ped12" depart="31.57" type="ped_pedestrian">
        <walk from="642361032" to="278328405#0"/>
    </person>
    <person id="ped13" depart="34.20" type="ped_pedestrian">
        <walk from="-578934699" to="-578934700#1"/>
    </person>
    <person id="ped14" depart="36.83" type="ped_pedestrian">
        <walk from="5962129#0" to="578934717#0"/>
    </person>
    <person id="ped15" depart="39.46" type="ped_pedestrian">
        <walk from="578942372#2" to="578942364"/>
    </person>
    <person id="ped16" depart="42.09" type="ped_pedestrian">
        <walk from="578934691#0" to="89922370#0"/>
    </person>
    <person id="ped17" depart="44.72" type="ped_pedestrian">
        <walk from="36054466#6" to="578934698"/>
    </person>
    <person id="ped18" depart="47.35" type="ped_pedestrian">
        <walk from="5955850#0" to="578934718#1"/>
    </person>
    <person id="ped19" depart="49.98" type="ped_pedestrian">
        <walk from="5962129#4" to="578934711"/>
    </person>
    <person id="ped20" depart="52.61" type="ped_pedestrian">
        <walk from="578942360#1" to="-578605861#2"/>
    </person>
    <person id="ped21" depart="55.24" type="ped_pedestrian">
        <walk from="-578942371#1" to="-5962129#1"/>
    </person>
    <person id="ped22" depart="57.87" type="ped_pedestrian">
        <walk from="-578934691#1" to="-578942371#2"/>
    </person>
    <person id="ped23" depart="60.50" type="ped_pedestrian">
        <walk from="-578934700#1" to="-5955850#1"/>
    </person>
    <person id="ped24" depart="63.13" type="ped_pedestrian">
        <walk from="578934722" to="36054466#4"/>
    </person>
    <person id="ped25" depart="65.76" type="ped_pedestrian">
        <walk from="36054466#5" to="-578942367#1"/>
    </person>
    <person id="ped26" depart="68.40" type="ped_pedestrian">
        <walk from="-593766962#1" to="642337372"/>
    </person>
    <person id="ped27" depart="71.03" type="ped_pedestrian">
        <walk from="578934724#2" to="578934717#1"/>
    </person>
    <person id="ped28" depart="73.66" type="ped_pedestrian">
        <walk from="-578942334" to="578942364"/>
    </person>
    <person id="ped29" depart="76.29" type="ped_pedestrian">
        <walk from="-578942331" to="36054466#7"/>
    </person>
    <person id="ped30" depart="78.92" type="ped_pedestrian">
        <walk from="89927838#3" to="578934723"/>
    </person>
    <person id="ped31" depart="81.55" type="ped_pedestrian">
        <walk from="578934699" to="578942355"/>
    </person>
    <person id="ped32" depart="84.18" type="ped_pedestrian">
        <walk from="5955850#2" to="578942370"/>
    </person>
    <person id="ped33" depart="86.81" type="ped_pedestrian">
        <walk from="-578942371#1" to="-419814433#4"/>
    </person>
    <person id="ped34" depart="89.44" type="ped_pedestrian">
        <walk from="-89927838#0" to="-593766965"/>
    </person>
    <person id="ped35" depart="92.07" type="ped_pedestrian">
        <walk from="-578942367#1" to="642337373"/>
    </person>
    <person id="ped36" depart="94.70" type="ped_pedestrian">
        <walk from="6024091#3" to="-89927838#0"/>
    </person>
    <person id="ped37" depart="97.33" type="ped_pedestrian">
        <walk from="578934726" to="419814433#0"/>
    </person>
    <person id="ped38" depart="99.96" type="ped_pedestrian">
        <walk from="641705064#0" to="436291019"/>
    </person>
    <person id="ped39" depart="102.59" type="ped_pedestrian">
        <walk from="-593766962#1" to="-578942372#1"/>
    </person>
    <person id="ped40" depart="105.22" type="ped_pedestrian">
        <walk from="578934700#1" to="-593766962#1"/>
    </person>
    <person id="ped41" depart="107.85" type="ped_pedestrian">
        <walk from="578934712" to="641705063#0"/>
    </person>
    <person id="ped42" depart="110.48" type="ped_pedestrian">
        <walk from="419814433#1" to="-578942370"/>
    </person>
    <person id="ped43" depart="113.12" type="ped_pedestrian">
        <walk from="gneE1" to="578605861#1"/>
    </person>
    <person id="ped44" depart="115.75" type="ped_pedestrian">
        <walk from="-578934699" to="-578605861#2"/>
    </person>
    <person id="ped45" depart="118.38" type="ped_pedestrian">
        <walk from="-578934709#1" to="578934719"/>
    </person>
    <person id="ped46" depart="121.01" type="ped_pedestrian">
        <walk from="578942371#2" to="436291011"/>
    </person>
    <person id="ped47" depart="123.64" type="ped_pedestrian">
        <walk from="-578934689" to="36054466#7"/>
    </person>
    <person id="ped48" depart="126.27" type="ped_pedestrian">
        <walk from="gneE1" to="578934689"/>
    </person>
    <person id="ped49" depart="128.90" type="ped_pedestrian">
        <walk from="89922370#0" to="5962129#4"/>
    </person>
    <person id="ped50" depart="131.53" type="ped_pedestrian">
        <walk from="-184711461" to="578942362"/>
    </person>
    <person id="ped51" depart="134.16" type="ped_pedestrian">
        <walk from="578942354#1" to="578934691#0"/>
    </person>
    <person id="ped52" depart="136.79" type="ped_pedestrian">
        <walk from="-593766962#1" to="578934723"/>
    </person>
    <person id="ped53" depart="139.42" type="ped_pedestrian">
        <walk from="-578934711" to="436291016#10"/>
    </person>
    <person id="ped54" depart="142.05" type="ped_pedestrian">
        <walk from="436291018" to="642337374#1"/>
    </person>
    <person id="ped55" depart="144.68" type="ped_pedestrian">
        <walk from="6024091#3" to="-593766962#1"/>
    </person>
    <person id="ped56" depart="147.31" type="ped_pedestrian">
        <walk from="578605861#0" to="-578942355"/>
    </person>
    <person id="ped57" depart="149.94" type="ped_pedestrian">
        <walk from="641705063#3" to="6024091#2"/>
    </person>
    <person id="ped58" depart="152.57" type="ped_pedestrian">
        <walk from="-5962129#3" to="578934723"/>
    </person>
    <person id="ped59" depart="155.20" type="ped_pedestrian">
        <walk from="578934717#1" to="-578934723"/>
    </person>
    <person id="ped60" depart="157.84" type="ped_pedestrian">
        <walk from="578942368#1" to="578934691#0"/>
    </person>
    <person id="ped61" depart="160.47" type="ped_pedestrian">
        <walk from="578942371#0" to="578934690"/>
    </person>
    <person id="ped62" depart="163.10" type="ped_pedestrian">
        <walk from="-184711458" to="132579327"/>
    </person>
    <person id="ped63" depart="165.73" type="ped_pedestrian">
        <walk from="-419814433#0" to="641705146#0"/>
    </person>
    <person id="ped64" depart="168.36" type="ped_pedestrian">
        <walk from="6024091#3" to="5955850#0"/>
    </person>
    <person id="ped65" depart="170.99" type="ped_pedestrian">
        <walk from="-5962129#4" to="-578605862#2"/>
    </person>
    <person id="ped66" depart="173.62" type="ped_pedestrian">
        <walk from="6024091#3" to="642337374#0"/>
    </person>
    <person id="ped67" depart="176.25" type="ped_pedestrian">
        <walk from="-578934692" to="436291062"/>
    </person>
    <person id="ped68" depart="178.88" type="ped_pedestrian">
        <walk from="-578934690" to="578942368#1"/>
    </person>
    <person id="ped69" depart="181.51" type="ped_pedestrian">
        <walk from="578942369#0" to="-578934717#1"/>
    </person>
    <person id="ped70" depart="184.14" type="ped_pedestrian">
        <walk from="436291029" to="578934692"/>
    </person>
    <person id="ped71" depart="186.77" type="ped_pedestrian">
        <walk from="-593766962#1" to="6024091#2"/>
    </person>
    <person id="ped72" depart="189.40" type="ped_pedestrian">
        <walk from="436291011" to="-578942367#1"/>
    </person>
    <person id="ped73" depart="192.03" type="ped_pedestrian">
        <walk from="578934691#0" to="578942364"/>
    </person>
    <person id="ped74" depart="194.66" type="ped_pedestrian">
        <walk from="-578942365" to="-641705065"/>
    </person>
    <person id="ped75" depart="197.29" type="ped_pedestrian">
        <walk from="gneE1" to="578934724#2"/>
    </person>
    <person id="ped76" depart="199.92" type="ped_pedestrian">
        <walk from="436291016#10" to="578605862#0"/>
    </person>
    <person id="ped77" depart="202.56" type="ped_pedestrian">
        <walk from="-578934712" to="-578942371#0"/>
    </person>
    <person id="ped78" depart="205.19" type="ped_pedestrian">
        <walk from="278328405#0" to="578934713#0"/>
    </person>
    <person id="ped79" depart="207.82" type="ped_pedestrian">
        <walk from="-578942371#1" to="-578942370"/>
    </person>
    <person id="ped80" depart="210.45" type="ped_pedestrian">
        <walk from="-578934691#0" to="578934719"/>
    </person>
    <person id="ped81" depart="213.08" type="ped_pedestrian">
        <walk from="-578942371#1" to="641705063#2"/>
    </person>
    <person id="ped82" depart="215.71" type="ped_pedestrian">
        <walk from="5962129#4" to="-578934691#0"/>
    </person>
    <person id="ped83" depart="218.34" type="ped_pedestrian">
        <walk from="-578942372#0" to="578942335"/>
    </person>
    <person id="ped84" depart="220.97" type="ped_pedestrian">
        <walk from="-578942367#2" to="-578934718#0"/>
    </person>
    <person id="ped85" depart="223.60" type="ped_pedestrian">
        <walk from="642337372" to="578934709#1"/>
    </person>
    <person id="ped86" depart="226.23" type="ped_pedestrian">
        <walk from="436291021#0" to="578942371#1"/>
    </person>
    <person id="ped87" depart="228.86" type="ped_pedestrian">
        <walk from="578942372#2" to="-578942358"/>
    </person>
    <person id="ped88" depart="231.49" type="ped_pedestrian">
        <walk from="-578934700#1" to="436291016#0"/>
    </person>
    <person id="ped89" depart="234.12" type="ped_pedestrian">
        <walk from="436291011" to="436291020#2"/>
    </person>
    <person id="ped90" depart="236.75" type="ped_pedestrian">
        <walk from="578942364" to="578942354#0"/>
    </person>
    <person id="ped91" depart="239.38" type="ped_pedestrian">
        <walk from="89927838#0" to="-578934700#1"/>
    </person>
    <person id="ped92" depart="242.01" type="ped_pedestrian">
        <walk from="419814433#1" to="278328405#1"/>
    </person>
    <person id="ped93" depart="244.65" type="ped_pedestrian">
        <walk from="5962129#4" to="-578942372#2"/>
    </person>
    <person id="ped94" depart="247.28" type="ped_pedestrian">
        <walk from="-578942358" to="436291016#9"/>
    </person>
    <person id="ped95" depart="249.91" type="ped_pedestrian">
        <walk from="436291011" to="-5955850#1"/>
    </person>
    <person id="ped96" depart="252.54" type="ped_pedestrian">
        <walk from="-578942372#2" to="641705065"/>
    </person>
    <person id="ped97" depart="255.17" type="ped_pedestrian">
        <walk from="436291016#4" to="5962129#4"/>
    </person>
    <person id="ped98" depart="257.80" type="ped_pedestrian">
        <walk from="578934692" to="-578605862#0"/>
    </person>
    <person id="ped99" depart="260.43" type="ped_pedestrian">
        <walk from="gneE1" to="5955850#1"/>
    </person>
    <person id="ped100" depart="263.06" type="ped_pedestrian">
        <walk from="642751754#1" to="641705146#0"/>
    </person>
    <person id="ped101" depart="265.69" type="ped_pedestrian">
        <walk from="5962129#2" to="-578942331"/>
    </person>
    <person id="ped102" depart="268.32" type="ped_pedestrian">
        <walk from="436291062" to="-578942367#2"/>
    </person>
    <person id="ped103" depart="270.95" type="ped_pedestrian">
        <walk from="419814433#1" to="-578605862#2"/>
    </person>
    <person id="ped104" depart="273.58" type="ped_pedestrian">
        <walk from="36054466#7" to="89927838#3"/>
    </person>
    <person id="ped105" depart="276.21" type="ped_pedestrian">
        <walk from="-593766962#1" to="578942371#1"/>
    </person>
    <person id="ped106" depart="278.84" type="ped_pedestrian">
        <walk from="436291019" to="436291011"/>
    </person>
    <person id="ped107" depart="281.47" type="ped_pedestrian">
        <walk from="642361032" to="gneE1"/>
    </person>
    <person id="ped108" depart="284.10" type="ped_pedestrian">
        <walk from="578934699" to="578942362"/>
    </person>
    <person id="ped109" depart="286.73" type="ped_pedestrian">
        <walk from="-578934723" to="-5962129#2"/>
    </person>
    <person id="ped110" depart="289.37" type="ped_pedestrian">
        <walk from="642751754#1" to="578934711"/>
    </person>
    <person id="ped111" depart="292.00" type="ped_pedestrian">
        <walk from="578934691#1" to="578942367#2"/>
    </person>
    <person id="ped112" depart="294.63" type="ped_pedestrian">
        <walk from="-578605862#2" to="578934712"/>
    </person>
    <person id="ped113" depart="297.26" type="ped_pedestrian">
        <walk from="578605861#0" to="5962129#2"/>
    </person>
    <person id="ped114" depart="299.89" type="ped_pedestrian">
        <walk from="-578934726" to="642751754#0"/>
    </person>
    <person id="ped115" depart="302.52" type="ped_pedestrian">
        <walk from="-578934691#1" to="-578942357"/>
    </person>
    <person id="ped116" depart="305.15" type="ped_pedestrian">
        <walk from="578934713#1" to="578942354#0"/>
    </person>
    <person id="ped117" depart="307.78" type="ped_pedestrian">
        <walk from="-578942371#2" to="-578934712"/>
    </person>
    <person id="ped118" depart="310.41" type="ped_pedestrian">
        <walk from="634644489" to="-578942372#1"/>
    </person>
    <person id="ped119" depart="313.04" type="ped_pedestrian">
        <walk from="578934713#1" to="578934718#1"/>
    </person>
    <person id="ped120" depart="315.67" type="ped_pedestrian">
        <walk from="436291011" to="578934712"/>
    </person>
    <person id="ped121" depart="318.30" type="ped_pedestrian">
        <walk from="578605862#2" to="642337372"/>
    </person>
    <person id="ped122" depart="320.93" type="ped_pedestrian">
        <walk from="-578942367#0" to="578942361#1"/>
    </person>
    <person id="ped123" depart="323.56" type="ped_pedestrian">
        <walk from="-578942372#0" to="419814433#0"/>
    </person>
    <person id="ped124" depart="326.19" type="ped_pedestrian">
        <walk from="578942335" to="-5962129#3"/>
    </person>
    <person id="ped125" depart="328.82" type="ped_pedestrian">
        <walk from="-89927838#0" to="578942367#2"/>
    </person>
    <person id="ped126" depart="331.45" type="ped_pedestrian">
        <walk from="-578934691#0" to="436291019"/>
    </person>
    <person id="ped127" depart="334.09" type="ped_pedestrian">
        <walk from="gneE1" to="gneE1"/>
    </person>
    <person id="ped128" depart="336.72" type="ped_pedestrian">
        <walk from="-578934691#0" to="-578942367#2"/>
    </person>
    <person id="ped129" depart="339.35" type="ped_pedestrian">
        <walk from="-593766962#1" to="641705146#1"/>
    </person>
    <person id="ped130" depart="341.98" type="ped_pedestrian">
        <walk from="6024091#5" to="6024091#5"/>
    </person>
    <person id="ped131" depart="344.61" type="ped_pedestrian">
        <walk from="36054466#5" to="-578934726"/>
    </person>
    <person id="ped132" depart="347.24" type="ped_pedestrian">
        <walk from="5955850#1" to="578942360#1"/>
    </person>
    <person id="ped133" depart="349.87" type="ped_pedestrian">
        <walk from="578934718#0" to="89927838#3"/>
    </person>
    <person id="ped134" depart="352.50" type="ped_pedestrian">
        <walk from="578934726" to="-184711460"/>
    </person>
    <person id="ped135" depart="355.13" type="ped_pedestrian">
        <walk from="593766960" to="-5962129#3"/>
    </person>
    <person id="ped136" depart="357.76" type="ped_pedestrian">
        <walk from="578942334" to="642337372"/>
    </person>
    <person id="ped137" depart="360.39" type="ped_pedestrian">
        <walk from="-578934718#0" to="-578934711"/>
    </person>
    <person id="ped138" depart="363.02" type="ped_pedestrian">
        <walk from="-578934709#1" to="578934698"/>
    </person>
    <person id="ped139" depart="365.65" type="ped_pedestrian">
        <walk from="-593766965" to="578934717#0"/>
    </person>
    <person id="ped140" depart="368.28" type="ped_pedestrian">
        <walk from="578942362" to="-578942367#0"/>
    </person>
    <person id="ped141" depart="370.91" type="ped_pedestrian">
        <walk from="578934722" to="-593766962#1"/>
    </person>
    <person id="ped142" depart="373.54" type="ped_pedestrian">
        <walk from="436291062" to="641705063#2"/>
    </person>
    <person id="ped143" depart="376.17" type="ped_pedestrian">
        <walk from="5962129#0" to="-578934699"/>
    </person>
    <person id="ped144" depart="378.81" type="ped_pedestrian">
        <walk from="436291011" to="-5955850#0"/>
    </person>
    <person id="ped145" depart="381.44" type="ped_pedestrian">
        <walk from="-184711458" to="578942369#1"/>
    </person>
    <person id="ped146" depart="384.07" type="ped_pedestrian">
        <walk from="578934723" to="-593766960"/>
    </person>
    <person id="ped147" depart="386.70" type="ped_pedestrian">
        <walk from="578942367#0" to="578934698"/>
    </person>
    <person id="ped148" depart="389.33" type="ped_pedestrian">
        <walk from="436291013" to="-184711460"/>
    </person>
    <person id="ped149" depart="391.96" type="ped_pedestrian">
        <walk from="-578934691#0" to="6024091#5"/>
    </person>
    <person id="ped150" depart="394.59" type="ped_pedestrian">
        <walk from="641705063#1" to="578934692"/>
    </person>
    <person id="ped151" depart="397.22" type="ped_pedestrian">
        <walk from="5955850#1" to="578934712"/>
    </person>
    <person id="ped152" depart="399.85" type="ped_pedestrian">
        <walk from="-578934719" to="-578934717#1"/>
    </person>
    <person id="ped153" depart="402.48" type="ped_pedestrian">
        <walk from="-641705065" to="641705063#0"/>
    </person>
    <person id="ped154" depart="405.11" type="ped_pedestrian">
        <walk from="578942372#0" to="5962129#4"/>
    </person>
    <person id="ped155" depart="407.74" type="ped_pedestrian">
        <walk from="641705063#0" to="-578942367#1"/>
    </person>
    <person id="ped156" depart="410.37" type="ped_pedestrian">
        <walk from="-578942372#2" to="-578934709#0"/>
    </person>
    <person id="ped157" depart="413.00" type="ped_pedestrian">
        <walk from="578942371#0" to="623099335"/>
    </person>
    <person id="ped158" depart="415.63" type="ped_pedestrian">
        <walk from="419814433#2" to="578934718#1"/>
    </person>
    <person id="ped159" depart="418.26" type="ped_pedestrian">
        <walk from="-578934723" to="641705146#1"/>
    </person>
    <person id="ped160" depart="420.89" type="ped_pedestrian">
        <walk from="5962129#5" to="89922370#5"/>
    </person>
    <person id="ped161" depart="423.53" type="ped_pedestrian">
        <walk from="578942375" to="6024091#5"/>
    </person>
    <person id="ped162" depart="426.16" type="ped_pedestrian">
        <walk from="-419814433#1" to="578942365"/>
    </person>
    <person id="ped163" depart="428.79" type="ped_pedestrian">
        <walk from="234953562" to="641705146#1"/>
    </person>
    <person id="ped164" depart="431.42" type="ped_pedestrian">
        <walk from="578942372#1" to="5962129#5"/>
    </person>
    <person id="ped165" depart="434.05" type="ped_pedestrian">
        <walk from="578942375" to="-593766962#1"/>
    </person>
    <person id="ped166" depart="436.68" type="ped_pedestrian">
        <walk from="578942371#1" to="-578934709#1"/>
    </person>
    <person id="ped167" depart="439.31" type="ped_pedestrian">
        <walk from="6024091#2" to="5962129#4"/>
    </person>
    <person id="ped168" depart="441.94" type="ped_pedestrian">
        <walk from="-578942371#0" to="593766960"/>
    </person>
    <person id="ped169" depart="444.57" type="ped_pedestrian">
        <walk from="436291020#0" to="-5962129#4"/>
    </person>
    <person id="ped170" depart="447.20" type="ped_pedestrian">
        <walk from="578942372#0" to="-578942371#1"/>
    </person>
    <person id="ped171" depart="449.83" type="ped_pedestrian">
        <walk from="-419814433#1" to="-578942364"/>
    </person>
    <person id="ped172" depart="452.46" type="ped_pedestrian">
        <walk from="132579327" to="5962129#5"/>
    </person>
    <person id="ped173" depart="455.09" type="ped_pedestrian">
        <walk from="642751754#1" to="-5955850#1"/>
    </person>
    <person id="ped174" depart="457.72" type="ped_pedestrian">
        <walk from="578934724#0" to="419814433#1"/>
    </person>
    <person id="ped175" depart="460.35" type="ped_pedestrian">
        <walk from="89927838#0" to="578934691#0"/>
    </person>
    <person id="ped176" depart="462.98" type="ped_pedestrian">
        <walk from="642337372" to="-578934711"/>
    </person>
    <person id="ped177" depart="465.61" type="ped_pedestrian">
        <walk from="89922370#0" to="-578942355"/>
    </person>
    <person id="ped178" depart="468.25" type="ped_pedestrian">
        <walk from="642751754#0" to="-593766962#1"/>
    </person>
    <person id="ped179" depart="470.88" type="ped_pedestrian">
        <walk from="-578934709#1" to="436291016#10"/>
    </person>
    <person id="ped180" depart="473.51" type="ped_pedestrian">
        <walk from="578942364" to="-89927838#0"/>
    </person>
    <person id="ped181" depart="476.14" type="ped_pedestrian">
        <walk from="578934717#1" to="578605861#2"/>
    </person>
    <person id="ped182" depart="478.77" type="ped_pedestrian">
        <walk from="36054466#8" to="578934711"/>
    </person>
    <person id="ped183" depart="481.40" type="ped_pedestrian">
        <walk from="-578942375" to="578942361#0"/>
    </person>
    <person id="ped184" depart="484.03" type="ped_pedestrian">
        <walk from="-184711458" to="641705146#0"/>
    </person>
    <person id="ped185" depart="486.66" type="ped_pedestrian">
        <walk from="578934691#0" to="578942362"/>
    </person>
    <person id="ped186" depart="489.29" type="ped_pedestrian">
        <walk from="578942367#0" to="578942335"/>
    </person>
    <person id="ped187" depart="491.92" type="ped_pedestrian">
        <walk from="36054466#4" to="-578934690"/>
    </person>
    <person id="ped188" depart="494.55" type="ped_pedestrian">
        <walk from="578942334" to="234953562"/>
    </person>
    <person id="ped189" depart="497.18" type="ped_pedestrian">
        <walk from="-89927838#0" to="5962129#0"/>
    </person>
    <person id="ped190" depart="499.81" type="ped_pedestrian">
        <walk from="578942362" to="-5962129#3"/>
    </person>
    <person id="ped191" depart="502.44" type="ped_pedestrian">
        <walk from="-641705065" to="419814433#2"/>
    </person>
    <person id="ped192" depart="505.07" type="ped_pedestrian">
        <walk from="419814433#1" to="-5962129#2"/>
    </person>
    <person id="ped193" depart="507.70" type="ped_pedestrian">
        <walk from="-578934717#1" to="436291011"/>
    </person>
    <person id="ped194" depart="510.33" type="ped_pedestrian">
        <walk from="642337373" to="578942354#1"/>
    </person>
    <person id="ped195" depart="512.97" type="ped_pedestrian">
        <walk from="641705063#1" to="578934718#0"/>
    </person>
    <person id="ped196" depart="515.60" type="ped_pedestrian">
        <walk from="-5962129#3" to="578934692"/>
    </person>
    <person id="ped197" depart="518.23" type="ped_pedestrian">
        <walk from="-184711458" to="-5955850#2"/>
    </person>
    <person id="ped198" depart="520.86" type="ped_pedestrian">
        <walk from="436291016#0" to="578934711"/>
    </person>
    <person id="ped199" depart="523.49" type="ped_pedestrian">
        <walk from="578934726" to="436291020#2"/>
    </person>
    <person id="ped200" depart="526.12" type="ped_pedestrian">
        <walk from="436291016#4" to="-578942367#2"/>
    </person>
    <person id="ped201" depart="528.75" type="ped_pedestrian">
        <walk from="436291021#0" to="641705063#1"/>
    </person>
    <person id="ped202" depart="531.38" type="ped_pedestrian">
        <walk from="578942372#0" to="-578942334"/>
    </person>
    <person id="ped203" depart="534.01" type="ped_pedestrian">
        <walk from="-578934692" to="578605862#0"/>
    </person>
    <person id="ped204" depart="536.64" type="ped_pedestrian">
        <walk from="578934722" to="278328405#0"/>
    </person>
    <person id="ped205" depart="539.27" type="ped_pedestrian">
        <walk from="593766961" to="578942367#2"/>
    </person>
    <person id="ped206" depart="541.90" type="ped_pedestrian">
        <walk from="578942354#0" to="-578942371#0"/>
    </person>
    <person id="ped207" depart="544.53" type="ped_pedestrian">
        <walk from="-578942365" to="-419814433#1"/>
    </person>
    <person id="ped208" depart="547.16" type="ped_pedestrian">
        <walk from="-578942372#1" to="436291029"/>
    </person>
    <person id="ped209" depart="549.79" type="ped_pedestrian">
        <walk from="5962129#2" to="-578934691#0"/>
    </person>
    <person id="ped210" depart="552.42" type="ped_pedestrian">
        <walk from="436291010" to="578934719"/>
    </person>
    <person id="ped211" depart="555.05" type="ped_pedestrian">
        <walk from="-578942364" to="578942358"/>
    </person>
    <person id="ped212" depart="557.69" type="ped_pedestrian">
        <walk from="436291064#1" to="-578942372#1"/>
    </person>
    <person id="ped213" depart="560.32" type="ped_pedestrian">
        <walk from="578934726" to="-184711460"/>
    </person>
    <person id="ped214" depart="562.95" type="ped_pedestrian">
        <walk from="578942367#2" to="578942369#1"/>
    </person>
    <person id="ped215" depart="565.58" type="ped_pedestrian">
        <walk from="-578934709#1" to="436291013"/>
    </person>
    <person id="ped216" depart="568.21" type="ped_pedestrian">
        <walk from="-578942344" to="642361032"/>
    </person>
    <person id="ped217" depart="570.84" type="ped_pedestrian">
        <walk from="578605862#0" to="-578605861#2"/>
    </person>
    <person id="ped218" depart="573.47" type="ped_pedestrian">
        <walk from="-578942372#2" to="5962129#0"/>
    </person>
    <person id="ped219" depart="576.10" type="ped_pedestrian">
        <walk from="436291019" to="578942372#1"/>
    </person>
    <person id="ped220" depart="578.73" type="ped_pedestrian">
        <walk from="578942335" to="89927838#3"/>
    </person>
    <person id="ped221" depart="581.36" type="ped_pedestrian">
        <walk from="578934713#1" to="642337374#1"/>
    </person>
    <person id="ped222" depart="583.99" type="ped_pedestrian">
        <walk from="634644489" to="578934718#0"/>
    </person>
    <person id="ped223" depart="586.62" type="ped_pedestrian">
        <walk from="578942362" to="578605861#0"/>
    </person>
    <person id="ped224" depart="589.25" type="ped_pedestrian">
        <walk from="5955850#0" to="578934692"/>
    </person>
    <person id="ped225" depart="591.88" type="ped_pedestrian">
        <walk from="641705063#0" to="578942367#1"/>
    </person>
    <person id="ped226" depart="594.51" type="ped_pedestrian">
        <walk from="436291021#0" to="-593766960"/>
    </person>
    <person id="ped227" depart="597.14" type="ped_pedestrian">
        <walk from="-578942372#1" to="578934723"/>
    </person>
    <person id="ped228" depart="599.77" type="ped_pedestrian">
        <walk from="578942369#0" to="578605862#2"/>
    </person>
    <person id="ped229" depart="602.41" type="ped_pedestrian">
        <walk from="578934719" to="-5955850#0"/>
    </person>
    <person id="ped230" depart="605.04" type="ped_pedestrian">
        <walk from="-578934691#1" to="-5955850#2"/>
    </person>
    <person id="ped231" depart="607.67" type="ped_pedestrian">
        <walk from="-593766965" to="-89927838#3"/>