<?xml version="1.0" encoding="UTF-8"?>

<!-- generated on 06/08/20 17:40:03 by Eclipse SUMO duarouter Version 1.6.0
<configuration xmlns:xsi="http://www.w3.org/2001/XMLSchema-instance" xsi:noNamespaceSchemaLocation="http://sumo.dlr.de/xsd/duarouterConfiguration.xsd">

    <input>
        <net-file value="osm.net.xml"/>
        <route-files value="osm.bus.trips.xml"/>
    </input>

    <output>
        <output-file value="osm.bus.rou.xml"/>
        <alternatives-output value="osm.bus.rou.alt.xml"/>
    </output>

    <time>
        <begin value="0"/>
        <end value="1800.0"/>
    </time>

    <report>
        <no-warnings value="true"/>
        <ignore-errors value="true"/>
        <no-step-log value="true"/>
    </report>

</configuration>
-->

<routes xmlns:xsi="http://www.w3.org/2001/XMLSchema-instance" xsi:noNamespaceSchemaLocation="http://sumo.dlr.de/xsd/routes_file.xsd">
    <vType id="bus_bus" vClass="bus"/>
    <vehicle id="bus0" type="bus_bus" depart="0.00" departLane="best" departSpeed="max">
        <route edges="642337374#0 642337374#1 642337373 436291011 436291010 436291016#0 5962129#0 5962129#2 5962129#3 5962129#4 5962129#5 gneE0 593766960 593766962#0"/>
    </vehicle>
    <vehicle id="bus1" type="bus_bus" depart="26.00" departLane="best" departSpeed="max">
        <route edges="642337374#0 642337374#1 642337373 436291011 436291010 436291016#0 5962129#0 5962129#2 5962129#3 5962129#4 5962129#5 gneE0 593766960 593766962#0"/>
    </vehicle>
    <vehicle id="bus2" type="bus_bus" depart="52.00" departLane="best" departSpeed="max">
        <route edges="-5955850#2 -5955850#1 -5955850#0 5962129#0 5962129#2 5962129#3 5962129#4 5962129#5 gneE0 593766960 593766962#0"/>
    </vehicle>
    <vehicle id="bus3" type="bus_bus" depart="78.00" departLane="best" departSpeed="max">
        <route edges="89922370#0 89922370#5 641705063#0 641705063#1 641705063#2 641705063#3 641705064#0 436291031 436291062 436291064#1 642361032"/>
    </vehicle>
    <vehicle id="bus4" type="bus_bus" depart="104.00" departLane="best" departSpeed="max">
        <route edges="89922370#0 89922370#5 641705063#0 641705063#1 641705063#2 641705063#3 641705064#0 436291031 436291062 436291064#1 642361032"/>
    </vehicle>
    <vehicle id="bus5" type="bus_bus" depart="130.00" departLane="best" departSpeed="max">
        <route edges="-593766962#1 -593766960 593766961 436291018 641705063#0 641705063#1 641705063#2 641705063#3 641705064#0 436291031 436291062 436291064#1 642361032"/>
    </vehicle>
    <vehicle id="bus7" type="bus_bus" depart="182.00" departLane="best" departSpeed="max">
        <route edges="642337374#0 642337374#1 642337373 436291011 436291010 436291016#0 5962129#0 5962129#2 5962129#3 5962129#4 5962129#5 gneE0 593766960 593766962#0"/>
    </vehicle>
    <vehicle id="bus9" type="bus_bus" depart="234.00" departLane="best" departSpeed="max">
        <route edges="-5955850#2 -5955850#1 -5955850#0 5962129#0 5962129#2 5962129#3 5962129#4 5962129#5 gneE0 593766961 436291018 436291020#0 436291020#2 436291019 278328405#1 436291029"/>
    </vehicle>
    <vehicle id="bus10" type="bus_bus" depart="260.00" departLane="best" departSpeed="max">
        <route edges="89922370#0 89922370#5 641705063#0 641705063#1 641705063#2 641705063#3 641705064#0 436291031 436291016#0 5955850#0 5955850#1 5955850#2"/>
    </vehicle>
    <vehicle id="bus12" type="bus_bus" depart="312.00" departLane="best" departSpeed="max">
        <route edges="642337374#0 642337374#1 642337373 436291011 436291010 436291016#0 5962129#0 5962129#2 5962129#3 5962129#4 5962129#5 gneE0 593766960 593766962#0"/>
    </vehicle>
    <vehicle id="bus13" type="bus_bus" depart="338.00" departLane="best" departSpeed="max">
        <route edges="-5955850#2 -5955850#1 -5955850#0 5962129#0 5962129#2 5962129#3 5962129#4 5962129#5 gneE0 593766961 436291018 436291020#0 436291020#2 436291019 278328405#1 436291029"/>
    </vehicle>
    <vehicle id="bus14" type="bus_bus" depart="364.00" departLane="best" departSpeed="max">
        <route edges="89922370#0 89922370#5 641705063#0 641705063#1 641705063#2 641705063#3 641705064#0 436291031 436291062 436291064#1 642361032"/>
    </vehicle>
    <vehicle id="bus15" type="bus_bus" depart="390.00" departLane="best" departSpeed="max">
        <route edges="-593766962#1 -593766960 gneE1 -593766965 -5962129#4 -5962129#3 -5962129#2 -5962129#1 5955850#0 5955850#1 5955850#2"/>
    </vehicle>
    <vehicle id="bus16" type="bus_bus" depart="416.00" departLane="best" departSpeed="max">
        <route edges="-5955850#2 -5955850#1 -5955850#0 5962129#0 5962129#2 5962129#3 5962129#4 5962129#5 gneE0 593766960 593766962#0"/>
    </vehicle>
    <vehicle id="bus18" type="bus_bus" depart="468.00" departLane="best" departSpeed="max">
        <route edges="642337374#0 642337374#1 642337373 234953562 634644489 278328405#0 278328405#1 436291029"/>
    </vehicle>
    <vehicle id="bus19" type="bus_bus" depart="494.00" departLane="best" departSpeed="max">
        <route edges="89922370#0 89922370#5 641705063#0 641705063#1 641705063#2 641705063#3 641705064#0 436291031 436291062 436291064#1 642361032"/>
    </vehicle>
    <vehicle id="bus21" type="bus_bus" depart="546.00" departLane="best" departSpeed="max">
        <route edges="642337374#0 642337374#1 642337373 436291011 436291010 436291016#0 5962129#0 5962129#2 5962129#3 5962129#4 5962129#5 gneE0 593766960 593766962#0"/>
    </vehicle>
    <vehicle id="bus23" type="bus_bus" depart="598.00" departLane="best" departSpeed="max">
        <route edges="-593766962#1 -593766960 593766961 436291018 641705063#0 641705063#1 641705063#2 641705063#3 641705064#0 436291031 436291062 436291064#1 642361032"/>
    </vehicle>
    <vehicle id="bus26" type="bus_bus" depart="676.00" departLane="best" departSpeed="max">
        <route edges="-593766962#1 -593766960 593766961 436291018 641705063#0 641705063#1 641705063#2 641705063#3 641705064#0 436291031 436291062 436291064#1 642361032"/>
    </vehicle>
    <vehicle id="bus27" type="bus_bus" depart="702.00" departLane="best" departSpeed="max">
        <route edges="642337374#0 642337374#1 642337373 234953562 634644489 278328405#0 278328405#1 436291029"/>
    </vehicle>
    <vehicle id="bus28" type="bus_bus" depart="728.00" departLane="best" departSpeed="max">
        <route edges="89922370#0 89922370#5 641705063#0 641705063#1 641705063#2 641705063#3 641705064#0 436291031 436291016#0 5955850#0 5955850#1 5955850#2"/>
    </vehicle>
    <vehicle id="bus29" type="bus_bus" depart="754.00" departLane="best" departSpeed="max">
        <route edges="-593766962#1 -593766960 593766961 436291018 641705063#0 641705063#1 641705063#2 641705063#3 641705064#0 436291031 436291062 436291064#1 642361032"/>
    </vehicle>
    <vehicle id="bus32" type="bus_bus" depart="832.00" departLane="best" departSpeed="max">
        <route edges="-593766962#1 -593766960 gneE1 -593766965 -5962129#4 -5962129#3 -5962129#2 -5962129#1 5955850#0 5955850#1 5955850#2"/>
    </vehicle>
    <vehicle id="bus34" type="bus_bus" depart="884.00" departLane="best" departSpeed="max">
        <route edges="-5955850#2 -5955850#1 -5955850#0 5962129#0 5962129#2 5962129#3 5962129#4 5962129#5 gneE0 593766960 593766962#0"/>
    </vehicle>
    <vehicle id="bus37" type="bus_bus" depart="962.00" departLane="best" departSpeed="max">
        <route edges="-5955850#2 -5955850#1 -5955850#0 5962129#0 5962129#2 5962129#3 5962129#4 5962129#5 gneE0 593766960 593766962#0"/>
    </vehicle>
    <vehicle id="bus39" type="bus_bus" depart="1014.00" departLane="best" departSpeed="max">
        <route edges="-593766962#1 -593766960 gneE1 -593766965 -5962129#4 -5962129#3 -5962129#2 -5962129#1 5955850#0 5955850#1 5955850#2"/>
    </vehicle>
    <vehicle id="bus40" type="bus_bus" depart="1040.00" departLane="best" departSpeed="max">
        <route edges="642337374#0 642337374#1 642337373 436291011 436291010 436291016#0 5962129#0 5962129#2 5962129#3 5962129#4 5962129#5 gneE0 593766960 593766962#0"/>
    </vehicle>
    <vehicle id="bus41" type="bus_bus" depart="1066.00" departLane="best" departSpeed="max">
        <route edges="89922370#0 89922370#5 641705063#0 641705063#1 641705063#2 641705063#3 641705064#0 436291031 436291062 436291064#1 642361032"/>
    </vehicle>
    <vehicle id="bus42" type="bus_bus" depart="1092.00" departLane="best" departSpeed="max">
        <route edges="-5955850#2 -5955850#1 -5955850#0 5962129#0 5962129#2 5962129#3 5962129#4 5962129#5 gneE0 593766961 436291018 436291020#0 436291020#2 436291019 278328405#1 436291029"/>
    </vehicle>
    <vehicle id="bus45" type="bus_bus" depart="1170.00" departLane="best" departSpeed="max">
        <route edges="-5955850#2 -5955850#1 -5955850#0 5962129#0 5962129#2 5962129#3 5962129#4 5962129#5 gneE0 593766961 436291018 436291020#0 436291020#2 436291019 278328405#1 436291029"/>
    </vehicle>
    <vehicle id="bus46" type="bus_bus" depart="1196.00" departLane="best" departSpeed="max">
        <route edges="-593766962#1 -593766960 593766961 436291018 641705063#0 641705063#1 641705063#2 641705063#3 641705064#0 436291031 436291062 436291064#1 642361032"/>
    </vehicle>
    <vehicle id="bus48" type="bus_bus" depart="1248.00" departLane="best" departSpeed="max">
        <route edges="-5955850#2 -5955850#1 -5955850#0 5962129#0 5962129#2 5962129#3 5962129#4 5962129#5 gneE0 593766961 436291018 436291020#0 436291020#2 436291019 278328405#1 436291029"/>
    </vehicle>
    <vehicle id="bus49" type="bus_bus" depart="1274.00" departLane="best" departSpeed="max">
        <route edges="-593766962#1 -593766960 593766961 436291018 641705063#0 641705063#1 641705063#2 641705063#3 641705064#0 436291031 436291062 436291064#1 642361032"/>
    </vehicle>
    <vehicle id="bus50" type="bus_bus" depart="1300.00" departLane="best" departSpeed="max">
        <route edges="-593766962#1 -593766960 593766961 436291018 641705063#0 641705063#1 641705063#2 641705063#3 641705064#0 436291031 436291062 436291064#1 642361032"/>
    </vehicle>
    <vehicle id="bus51" type="bus_bus" depart="1326.00" departLane="best" departSpeed="max">
        <route edges="-593766962#1 -593766960 593766961 436291018 641705063#0 641705063#1 641705063#2 641705063#3 641705064#0 436291031 436291062 436291064#1 642361032"/>
    </vehicle>
    <vehicle id="bus52" type="bus_bus" depart="1352.00" departLane="best" departSpeed="max">
        <route edges="-593766962#1 -593766960 593766961 436291018 641705063#0 641705063#1 641705063#2 641705063#3 641705064#0 436291031 436291062 436291064#1 642361032"/>
    </vehicle>
    <vehicle id="bus54" type="bus_bus" depart="1404.00" departLane="best" departSpeed="max">
        <route edges="-593766962#1 -593766960 gneE1 -593766965 -5962129#4 -5962129#3 -5962129#2 -5962129#1 5955850#0 5955850#1 5955850#2"/>
    </vehicle>
    <vehicle id="bus55" type="bus_bus" depart="1430.00" departLane="best" departSpeed="max">
        <route edges="-5955850#2 -5955850#1 -5955850#0 5962129#0 5962129#2 5962129#3 5962129#4 5962129#5 gneE0 593766960 593766962#0"/>
    </vehicle>
    <vehicle id="bus56" type="bus_bus" depart="1456.00" departLane="best" departSpeed="max">
        <route edges="642337374#0 642337374#1 642337373 234953562 634644489 278328405#0 278328405#1 436291029"/>
    </vehicle>
    <vehicle id="bus58" type="bus_bus" depart="1508.00" departLane="best" departSpeed="max">
        <route edges="642337374#0 642337374#1 642337373 234953562 634644489 278328405#0 278328405#1 436291029"/>
    </vehicle>
    <vehicle id="bus59" type="bus_bus" depart="1534.00" departLane="best" departSpeed="max">
        <route edges="642337374#0 642337374#1 642337373 436291011 436291010 436291016#0 5962129#0 5962129#2 5962129#3 5962129#4 5962129#5 gneE0 593766960 593766962#0"/>
    </vehicle>
    <vehicle id="bus60" type="bus_bus" depart="1560.00" departLane="best" departSpeed="max">
        <route edges="642337374#0 642337374#1 642337373 234953562 634644489 278328405#0 278328405#1 436291029"/>
    </vehicle>
    <vehicle id="bus61" type="bus_bus" depart="1586.00" departLane="best" departSpeed="max">
        <route edges="-593766962#1 -593766960 593766961 436291018 641705063#0 641705063#1 641705063#2 641705063#3 641705064#0 436291031 436291062 436291064#1 642361032"/>
    </vehicle>
    <vehicle id="bus62" type="bus_bus" depart="1612.00" departLane="best" departSpeed="max">
        <route edges="-593766962#1 -593766960 593766961 436291018 641705063#0 641705063#1 641705063#2 641705063#3 641705064#0 436291031 436291062 436291064#1 642361032"/>
    </vehicle>
    <vehicle id="bus63" type="bus_bus" depart="1638.00" departLane="best" departSpeed="max">
        <route edges="89922370#0 89922370#5 641705063#0 641705063#1 641705063#2 641705063#3 641705064#0 436291031 436291062 436291064#1 642361032"/>
    </vehicle>
    <vehicle id="bus66" type="bus_bus" depart="1716.00" departLane="best" departSpeed="max">
        <route edges="642337374#0 642337374#1 642337373 234953562 634644489 278328405#0 278328405#1 436291029"/>
    </vehicle>
    <vehicle id="bus67" type="bus_bus" depart="1742.00" departLane="best" departSpeed="max">
        <route edges="-5955850#2 -5955850#1 -5955850#0 5962129#0 5962129#2 5962129#3 5962129#4 5962129#5 gneE0 593766961 436291018 436291020#0 436291020#2 436291019 278328405#1 436291029"/>
    </vehicle>
    <vehicle id="bus69" type="bus_bus" depart="1794.00" departLane="best" departSpeed="max">
        <route edges="89922370#0 89922370#5 641705063#0 641705063#1 641705063#2 641705063#3 641705064#0 436291031 436291016#0 5955850#0 5955850#1 5955850#2"/>
    </vehicle>
</routes>
