<?xml version="1.0" encoding="UTF-8"?>

<!-- generated on 06/16/20 20:04:57 by Eclipse SUMO duarouter Version 1.6.0
<configuration xmlns:xsi="http://www.w3.org/2001/XMLSchema-instance" xsi:noNamespaceSchemaLocation="http://sumo.dlr.de/xsd/duarouterConfiguration.xsd">

    <input>
        <net-file value="osm.net.xml"/>
        <route-files value="osm.motorcycle.trips.xml"/>
    </input>

    <output>
        <output-file value="osm.motorcycle.rou.xml"/>
        <alternatives-output value="osm.motorcycle.rou.alt.xml"/>
    </output>

    <time>
        <begin value="0"/>
        <end value="1800.0"/>
    </time>

    <report>
        <no-warnings value="true"/>
        <ignore-errors value="true"/>
        <no-step-log value="true"/>
    </report>

</configuration>
-->

<routes xmlns:xsi="http://www.w3.org/2001/XMLSchema-instance" xsi:noNamespaceSchemaLocation="http://sumo.dlr.de/xsd/routes_file.xsd">
    <vType id="moto_motorcycle" vClass="motorcycle"/>
    <vehicle id="moto1" type="moto_motorcycle" depart="8.50" departLane="best">
        <route edges="36054466#4 641705063#2 641705063#3 641705065 634644489 278328405#0 278328405#1"/>
    </vehicle>
    <vehicle id="moto2" type="moto_motorcycle" depart="17.00" departLane="best">
        <route edges="634644489 36054466#0 36054466#1 36054466#3 36054466#4 641705063#2 641705063#3 641705064#0 436291031 436291016#0 5962129#0"/>
    </vehicle>
    <vehicle id="moto4" type="moto_motorcycle" depart="34.00" departLane="best">
        <route edges="436291013 234953562 -641705065 -419814433#4 -419814433#2 -419814433#1"/>
    </vehicle>
    <vehicle id="moto6" type="moto_motorcycle" depart="51.00" departLane="best">
        <route edges="-419814433#4 419814433#4 641705064#0 436291031 436291062 436291064#1 642337372 642337373 234953562"/>
    </vehicle>
    <vehicle id="moto7" type="moto_motorcycle" depart="59.50" departLane="best">
        <route edges="5962129#0 5962129#2 5962129#3 5962129#4 5962129#5 gneE0 593766961 436291018 436291020#0 436291020#2 436291019 278328405#1 436291029"/>
    </vehicle>
    <vehicle id="moto9" type="moto_motorcycle" depart="76.50" departLane="best">
        <route edges="641705065 634644489 36054466#0 36054466#1 36054466#3 36054466#4 641705063#2 641705063#3 -419814433#4 -419814433#2 -419814433#1 -419814433#0"/>
    </vehicle>
    <vehicle id="moto10" type="moto_motorcycle" depart="85.00" departLane="best">
        <route edges="641705065 634644489 36054466#0 36054466#1 36054466#3 36054466#4 641705063#2 641705063#3 -419814433#4 -419814433#2 5962129#2 5962129#3"/>
    </vehicle>
    <vehicle id="moto11" type="moto_motorcycle" depart="93.50" departLane="best" departSpeed="max">
        <route edges="419814433#0 419814433#1 419814433#2 419814433#4 641705064#0 436291031 436291062 436291064#1 642337372 642337373 234953562 -641705065"/>
    </vehicle>
    <vehicle id="moto12" type="moto_motorcycle" depart="102.00" departLane="best" departSpeed="max">
        <route edges="89927838#0 89927838#3 36054466#0 36054466#1 36054466#3 36054466#4 36054466#5 36054466#6 36054466#7 36054466#8"/>
    </vehicle>
    <vehicle id="moto14" type="moto_motorcycle" depart="119.00" departLane="best">
        <route edges="642337372 642337373 436291011 436291010 436291016#0 5962129#0 5962129#2 5962129#3 5962129#4 5962129#5 gneE0 593766960 593766962#0"/>
    </vehicle>
    <vehicle id="moto15" type="moto_motorcycle" depart="127.50" departLane="best">
        <route edges="641705065 634644489 36054466#0 36054466#1 36054466#3 36054466#4 36054466#5 36054466#6 36054466#7 36054466#8 36054466#9 -5962129#3 -5962129#2 -5962129#1 5955850#0 6024091#2"/>
    </vehicle>
    <vehicle id="moto16" type="moto_motorcycle" depart="136.00" departLane="best">
        <route edges="436291031 436291062 436291064#1 642337372 642337373 234953562 634644489 -89927838#3 -89927838#0 89927838#0 89927838#3"/>
    </vehicle>
    <vehicle id="moto17" type="moto_motorcycle" depart="144.50" departLane="best">
        <route edges="419814433#2 419814433#4 641705064#0 436291031"/>
    </vehicle>
    <vehicle id="moto19" type="moto_motorcycle" depart="161.50" departLane="best" departSpeed="max">
        <route edges="642337374#0 642337374#1 642337373 436291011 436291010 436291062 436291064#1"/>
    </vehicle>
    <vehicle id="moto20" type="moto_motorcycle" depart="170.00" departLane="best">
        <route edges="6024091#2 6024091#3 6024091#5 642337372 642337373 234953562 -641705065 -419814433#4"/>
    </vehicle>
    <vehicle id="moto22" type="moto_motorcycle" depart="187.00" departLane="best">
        <route edges="-593766965 -5962129#4 -5962129#3 -5962129#2 419814433#2 419814433#4 641705065 634644489 36054466#0"/>
    </vehicle>
    <vehicle id="moto23" type="moto_motorcycle" depart="195.50" departLane="best">
        <route edges="-5955850#1 -5955850#0 5962129#0 419814433#2 419814433#4 641705065 634644489 36054466#0 36054466#1 36054466#3"/>
    </vehicle>
    <vehicle id="moto25" type="moto_motorcycle" depart="212.50" departLane="best">
        <route edges="419814433#1 419814433#2 419814433#4 641705065 634644489 278328405#0"/>
    </vehicle>
    <vehicle id="moto26" type="moto_motorcycle" depart="221.00" departLane="best">
        <route edges="36054466#3 36054466#4 641705063#2 641705063#3 641705065 634644489 278328405#0 642751754#0 642751754#1"/>
    </vehicle>
    <vehicle id="moto27" type="moto_motorcycle" depart="229.50" departLane="best">
        <route edges="5962129#0 5962129#2 5962129#3 5962129#4 5962129#5 gneE0 593766960 593766962#0"/>
    </vehicle>
    <vehicle id="moto28" type="moto_motorcycle" depart="238.00" departLane="best">
        <route edges="-5962129#4 -5962129#3 -5962129#2 -5962129#1 5955850#0 6024091#2"/>
    </vehicle>
    <vehicle id="moto29" type="moto_motorcycle" depart="246.50" departLane="best">
        <route edges="-5962129#4 -5962129#3 -5962129#2 419814433#2 419814433#4"/>
    </vehicle>
    <vehicle id="moto30" type="moto_motorcycle" depart="255.00" departLane="best">
        <route edges="gneE1 -593766965 -5962129#4 -5962129#3 -5962129#2 -5962129#1 5955850#0 5955850#1"/>
    </vehicle>
    <vehicle id="moto31" type="moto_motorcycle" depart="263.50" departLane="best">
        <route edges="436291062 436291064#1 642337372 642337373 436291011 436291010 436291016#0 5962129#0 5962129#2"/>
    </vehicle>
    <vehicle id="moto32" type="moto_motorcycle" depart="272.00" departLane="best">
        <route edges="642337372 642337373 436291011 436291010 436291016#0 5962129#0 5962129#2 5962129#3 5962129#4 5962129#5 gneE0 593766961 436291018 641705063#0"/>
    </vehicle>
    <vehicle id="moto34" type="moto_motorcycle" depart="289.00" departLane="best">
        <route edges="36054466#8 36054466#9 36054466#10"/>
    </vehicle>
    <vehicle id="moto35" type="moto_motorcycle" depart="297.50" departLane="best">
        <route edges="278328405#0 642751754#0 642751754#1"/>
    </vehicle>
    <vehicle id="moto36" type="moto_motorcycle" depart="306.00" departLane="best" departSpeed="max">
        <route edges="642337374#0 642337374#1 642337373 234953562 634644489 36054466#0 36054466#1 36054466#3 36054466#4 36054466#5 36054466#6"/>
    </vehicle>
    <vehicle id="moto37" type="moto_motorcycle" depart="314.50" departLane="best">
        <route edges="5962129#2 5962129#3 5962129#4 5962129#5 gneE0 593766961 436291018 641705063#0 641705063#1 641705063#2 641705063#3 641705064#0 436291031 436291062 436291064#1 642337372 642337373 436291011 436291010"/>
    </vehicle>
    <vehicle id="moto38" type="moto_motorcycle" depart="323.00" departLane="best" departSpeed="max">
        <route edges="89922370#0 89922370#5 641705063#0 641705063#1 641705063#2 641705063#3 641705064#0 436291031 436291016#0 436291016#4"/>
    </vehicle>
    <vehicle id="moto39" type="moto_motorcycle" depart="331.50" departLane="best">
        <route edges="36054466#3 36054466#4 641705063#2 641705063#3 641705065 634644489 36054466#0 36054466#1"/>
    </vehicle>
    <vehicle id="moto40" type="moto_motorcycle" depart="340.00" departLane="best">
        <route edges="436291064#1 642337372 642337373 234953562 634644489 36054466#0 36054466#1 36054466#3 36054466#4 36054466#5 36054466#6 36054466#7 36054466#8 36054466#9 36054466#10"/>
    </vehicle>
    <vehicle id="moto41" type="moto_motorcycle" depart="348.50" departLane="best" departSpeed="max">
        <route edges="573865733#1 436291013 436291011 436291010 436291062 436291064#1 642361032"/>
    </vehicle>
    <vehicle id="moto42" type="moto_motorcycle" depart="357.00" departLane="best">
        <route edges="436291010 436291062 436291064#1 642337372 642337373 234953562 634644489 278328405#0 278328405#1"/>
    </vehicle>
    <vehicle id="moto43" type="moto_motorcycle" depart="365.50" departLane="best">
        <route edges="gneE1 -593766965 -5962129#4 -5962129#3 -5962129#2 419814433#2 -419814433#2 5962129#2 5962129#3 5962129#4 5962129#5 gneE0 593766961 436291018 436291020#0"/>
    </vehicle>
    <vehicle id="moto44" type="moto_motorcycle" depart="374.00" departLane="best">
        <route edges="-5955850#0 5962129#0 5962129#2 5962129#3 5962129#4 5962129#5 gneE0 593766961 436291018 641705063#0 641705063#1 641705063#2 641705063#3 -419814433#4"/>
    </vehicle>
    <vehicle id="moto45" type="moto_motorcycle" depart="382.50" departLane="best" departSpeed="max">
        <route edges="-5955850#2 -5955850#1 -5955850#0 5962129#0 419814433#2 -419814433#2 -5962129#1 5955850#0"/>
    </vehicle>
    <vehicle id="moto46" type="moto_motorcycle" depart="391.00" departLane="best">
        <route edges="641705064#0 436291031 436291016#0"/>
    </vehicle>
    <vehicle id="moto47" type="moto_motorcycle" depart="399.50" departLane="best" departSpeed="max">
        <route edges="-593766962#1 -593766960 gneE1 -593766965 -5962129#4 -5962129#3 -5962129#2 419814433#2 419814433#4"/>
    </vehicle>
    <vehicle id="moto48" type="moto_motorcycle" depart="408.00" departLane="best">
        <route edges="gneE1 -593766965 -5962129#4 -5962129#3 -5962129#2 419814433#2 419814433#4 641705065 634644489 278328405#0 278328405#1 436291029"/>
    </vehicle>
    <vehicle id="moto49" type="moto_motorcycle" depart="416.50" departLane="best">
        <route edges="89927838#3 36054466#0 36054466#1 36054466#3 36054466#4 641705063#2 641705063#3 641705064#0 436291031 436291062 436291064#1 642337372 641705146#0 641705146#1"/>
    </vehicle>
    <vehicle id="moto50" type="moto_motorcycle" depart="425.00" departLane="best">
        <route edges="-419814433#1 -419814433#0 419814433#0 419814433#1 5962129#2 5962129#3 5962129#4 5962129#5"/>
    </vehicle>
    <vehicle id="moto51" type="moto_motorcycle" depart="433.50" departLane="best">
        <route edges="5962129#4 5962129#5 gneE0 593766961 436291018 436291020#0 436291020#2 436291019 278328405#1 436291029"/>
    </vehicle>
    <vehicle id="moto52" type="moto_motorcycle" depart="442.00" departLane="best">
        <route edges="36054466#3 36054466#4 36054466#5 36054466#6 36054466#7 36054466#8 36054466#9 -5962129#3 -5962129#2 -5962129#1 5955850#0 5955850#1"/>
    </vehicle>
    <vehicle id="moto53" type="moto_motorcycle" depart="450.50" departLane="best" departSpeed="max">
        <route edges="-5955850#2 -5955850#1 -5955850#0 436291016#4 436291016#9 436291016#10"/>
    </vehicle>
    <vehicle id="moto55" type="moto_motorcycle" depart="467.50" departLane="best" departSpeed="max">
        <route edges="642337374#0 642337374#1 642337373 234953562 634644489 36054466#0 36054466#1 36054466#3 36054466#4 36054466#5 36054466#6 36054466#7 36054466#8 36054466#9 36054466#10"/>
    </vehicle>
    <vehicle id="moto57" type="moto_motorcycle" depart="484.50" departLane="best" departSpeed="max">
        <route edges="89922370#0 89922370#5 641705063#0 641705063#1 641705063#2 641705063#3 641705064#0 436291031 436291062 436291064#1 642337372"/>
    </vehicle>
    <vehicle id="moto58" type="moto_motorcycle" depart="493.00" departLane="best">
        <route edges="36054466#6 36054466#7 36054466#8 36054466#9 -5962129#3 -5962129#2 -5962129#1 5955850#0 5955850#1"/>
    </vehicle>
    <vehicle id="moto59" type="moto_motorcycle" depart="501.50" departLane="best">
        <route edges="593766961 436291018 641705063#0 641705063#1 641705063#2 641705063#3 641705064#0 436291031 436291062 436291064#1 642337372 642337373 234953562 -641705065"/>
    </vehicle>
    <vehicle id="moto60" type="moto_motorcycle" depart="510.00" departLane="best">
        <route edges="641705063#1 641705063#2 641705063#3 641705065 634644489 278328405#0 278328405#1 436291029"/>
    </vehicle>
    <vehicle id="moto61" type="moto_motorcycle" depart="518.50" departLane="best">
        <route edges="641705063#2 641705063#3 641705065 634644489 278328405#0 278328405#1 436291029"/>
    </vehicle>
    <vehicle id="moto62" type="moto_motorcycle" depart="527.00" departLane="best">
        <route edges="-419814433#1 -419814433#0 419814433#0 419814433#1 5962129#2 5962129#3 5962129#4 5962129#5 gneE0 593766961 436291018 641705063#0 641705063#1 36054466#5 36054466#6 36054466#7"/>
    </vehicle>
    <vehicle id="moto63" type="moto_motorcycle" depart="535.50" departLane="best">
        <route edges="-419814433#2 5962129#2 5962129#3 5962129#4 5962129#5 gneE0 593766961 436291018 436291020#0 436291020#2 436291019 642751754#0"/>
    </vehicle>
    <vehicle id="moto64" type="moto_motorcycle" depart="544.00" departLane="best" departSpeed="max">
        <route edges="642337374#0 642337374#1 642337373 234953562 -641705065 -419814433#4 419814433#4 641705065"/>
    </vehicle>
    <vehicle id="moto65" type="moto_motorcycle" depart="552.50" departLane="best">
        <route edges="36054466#7 36054466#8 36054466#9 5962129#4 5962129#5 gneE0 593766960 593766962#0 -593766962#1 -593766960"/>
    </vehicle>
    <vehicle id="moto66" type="moto_motorcycle" depart="561.00" departLane="best" departSpeed="max">
        <route edges="642337374#0 642337374#1 642337373 234953562 634644489 278328405#0 642751754#0 642751754#1"/>
    </vehicle>
    <vehicle id="moto67" type="moto_motorcycle" depart="569.50" departLane="best">
        <route edges="-5955850#0 5962129#0 5962129#2 5962129#3 5962129#4 5962129#5 gneE0 593766961 436291018"/>
    </vehicle>
    <vehicle id="moto68" type="moto_motorcycle" depart="578.00" departLane="best" departSpeed="max">
        <route edges="-593766962#1 -593766960 gneE1 -593766965 -5962129#4 -5962129#3 -5962129#2 -5962129#1 5955850#0 6024091#2 6024091#3 6024091#5"/>
    </vehicle>
    <vehicle id="moto69" type="moto_motorcycle" depart="586.50" departLane="best">
        <route edges="641705063#1 36054466#5 36054466#6 36054466#7 36054466#8 36054466#9 -5962129#3"/>
    </vehicle>
    <vehicle id="moto70" type="moto_motorcycle" depart="595.00" departLane="best">
        <route edges="436291018 641705063#0 641705063#1 641705063#2 641705063#3 641705064#0 436291031"/>
    </vehicle>
    <vehicle id="moto71" type="moto_motorcycle" depart="603.50" departLane="best">
        <route edges="36054466#3 36054466#4 641705063#2 641705063#3 641705064#0 436291031 436291062 436291064#1 642337372"/>
    </vehicle>
    <vehicle id="moto72" type="moto_motorcycle" depart="612.00" departLane="best">
        <route edges="436291013 234953562 634644489 278328405#0"/>
    </vehicle>
    <vehicle id="moto73" type="moto_motorcycle" depart="620.50" departLane="best">
        <route edges="436291031 436291016#0 5955850#0 6024091#2"/>
    </vehicle>
    <vehicle id="moto74" type="moto_motorcycle" depart="629.00" departLane="best">
        <route edges="234953562 634644489 36054466#0 36054466#1 36054466#3 36054466#4 36054466#5 36054466#6"/>
    </vehicle>
    <vehicle id="moto75" type="moto_motorcycle" depart="637.50" departLane="best">
        <route edges="gneE1 -593766965 -5962129#4 -5962129#3 -5962129#2 -5962129#1 5955850#0 5955850#1 5955850#2"/>
    </vehicle>
    <vehicle id="moto76" type="moto_motorcycle" depart="646.00" departLane="best">
        <route edges="436291016#0 5962129#0 5962129#2 5962129#3 5962129#4 5962129#5 gneE0 593766961 436291018 436291020#0 436291020#2"/>
    </vehicle>
    <vehicle id="moto77" type="moto_motorcycle" depart="654.50" departLane="best" departSpeed="max">
        <route edges="-5955850#2 -5955850#1 -5955850#0 5962129#0 5962129#2 5962129#3 5962129#4 5962129#5 gneE0 593766961 436291018 436291020#0 436291020#2 436291019 278328405#1"/>
    </vehicle>
    <vehicle id="moto78" type="moto_motorcycle" depart="663.00" departLane="best" departSpeed="max">
        <route edges="419814433#0 419814433#1 5962129#2 5962129#3 5962129#4 5962129#5 gneE0 593766960"/>
    </vehicle>
    <vehicle id="moto79" type="moto_motorcycle" depart="671.50" departLane="best">
        <route edges="278328405#1"/>
    </vehicle>
    <vehicle id="moto80" type="moto_motorcycle" depart="680.00" departLane="best">
        <route edges="-593766965 -5962129#4 -5962129#3 -5962129#2 -5962129#1 5955850#0"/>
    </vehicle>
    <vehicle id="moto82" type="moto_motorcycle" depart="697.00" departLane="best">
        <route edges="642337373 436291011 436291010 436291016#0 5962129#0 5962129#2 5962129#3 5962129#4 5962129#5 gneE0 593766960 593766962#0 -593766962#1 -593766960 gneE1 -593766965"/>
    </vehicle>
    <vehicle id="moto83" type="moto_motorcycle" depart="705.50" departLane="best">
        <route edges="36054466#0 36054466#1 36054466#3 36054466#4 36054466#5 36054466#6 36054466#7 36054466#8 36054466#9 -5962129#3 -5962129#2 -5962129#1 5955850#0 5955850#1 5955850#2"/>
    </vehicle>
    <vehicle id="moto85" type="moto_motorcycle" depart="722.50" departLane="best">
        <route edges="89922370#5 641705063#0 641705063#1 641705063#2 641705063#3 641705064#0 436291031 436291062 436291064#1"/>
    </vehicle>
    <vehicle id="moto86" type="moto_motorcycle" depart="731.00" departLane="best">
        <route edges="436291018 641705063#0 641705063#1"/>
    </vehicle>
    <vehicle id="moto87" type="moto_motorcycle" depart="739.50" departLane="best">
        <route edges="641705065 634644489 -89927838#3"/>
    </vehicle>
    <vehicle id="moto88" type="moto_motorcycle" depart="748.00" departLane="best">
        <route edges="-5955850#1 -5955850#0 5962129#0 419814433#2 419814433#4 641705064#0 436291031 436291016#0"/>
    </vehicle>
    <vehicle id="moto89" type="moto_motorcycle" depart="756.50" departLane="best">
        <route edges="436291013 436291011 436291010 436291016#0 436291016#4 436291016#9"/>
    </vehicle>
    <vehicle id="moto90" type="moto_motorcycle" depart="765.00" departLane="best">
        <route edges="6024091#5 642337372 642337373 436291011 436291010 436291016#0 5962129#0"/>
    </vehicle>
    <vehicle id="moto92" type="moto_motorcycle" depart="782.00" departLane="best">
        <route edges="436291010 436291062 436291064#1 642337372 642337373 234953562 634644489 36054466#0 36054466#1 36054466#3 36054466#4 36054466#5 36054466#6 36054466#7 36054466#8"/>
    </vehicle>
    <vehicle id="moto93" type="moto_motorcycle" depart="790.50" departLane="best" departSpeed="max">
        <route edges="642337374#0 642337374#1 642337373 234953562 634644489 36054466#0 36054466#1"/>
    </vehicle>
    <vehicle id="moto94" type="moto_motorcycle" depart="799.00" departLane="best">
        <route edges="-89927838#3 -89927838#0 89927838#0 89927838#3 36054466#0 36054466#1 36054466#3 36054466#4 641705063#2 641705063#3 641705064#0 436291031 436291016#0 436291016#4 436291016#9 436291016#10"/>
    </vehicle>
    <vehicle id="moto95" type="moto_motorcycle" depart="807.50" departLane="best">
        <route edges="436291013 234953562 634644489 36054466#0 36054466#1 36054466#3"/>
    </vehicle>
    <vehicle id="moto96" type="moto_motorcycle" depart="816.00" departLane="best">
        <route edges="36054466#1 36054466#3 36054466#4 641705063#2 641705063#3 641705065 634644489 278328405#0 642751754#0"/>
    </vehicle>
    <vehicle id="moto98" type="moto_motorcycle" depart="833.00" departLane="best">
        <route edges="436291062 436291064#1 642337372 642337373 234953562 -641705065 -419814433#4"/>
    </vehicle>
    <vehicle id="moto99" type="moto_motorcycle" depart="841.50" departLane="best">
        <route edges="gneE1 -593766965 -5962129#4 -5962129#3 -5962129#2 419814433#2 419814433#4 641705065"/>
    </vehicle>
    <vehicle id="moto100" type="moto_motorcycle" depart="850.00" departLane="best">
        <route edges="89927838#3 278328405#0 642751754#0"/>
    </vehicle>
    <vehicle id="moto101" type="moto_motorcycle" depart="858.50" departLane="best">
        <route edges="642337372 642337373 234953562 634644489 -89927838#3 -89927838#0"/>
    </vehicle>
    <vehicle id="moto103" type="moto_motorcycle" depart="875.50" departLane="best">
        <route edges="436291010 436291016#0 5962129#0 5962129#2 5962129#3 5962129#4 5962129#5 gneE0 593766960 593766962#0 -593766962#1 -593766960"/>
    </vehicle>
    <vehicle id="moto104" type="moto_motorcycle" depart="884.00" departLane="best">
        <route edges="419814433#2 -419814433#2 5962129#2 5962129#3 5962129#4 5962129#5 gneE0"/>
    </vehicle>
    <vehicle id="moto105" type="moto_motorcycle" depart="892.50" departLane="best">
        <route edges="36054466#3 36054466#4 36054466#5 36054466#6 36054466#7 36054466#8 36054466#9 5962129#4 5962129#5 gneE0 593766961 436291018 641705063#0"/>
    </vehicle>
    <vehicle id="moto107" type="moto_motorcycle" depart="909.50" departLane="best" departSpeed="max">
        <route edges="89927838#0 89927838#3 36054466#0 36054466#1 36054466#3 36054466#4 36054466#5 36054466#6 36054466#7 36054466#8 36054466#9 5962129#4 5962129#5 gneE0 593766960 593766962#0 -593766962#1 -593766960 gneE1"/>
    </vehicle>
    <vehicle id="moto108" type="moto_motorcycle" depart="918.00" departLane="best">
        <route edges="436291062 436291064#1 642337372 642337373 436291011 436291010 436291016#0 5962129#0 5962129#2 5962129#3 5962129#4 5962129#5"/>
    </vehicle>
    <vehicle id="moto109" type="moto_motorcycle" depart="926.50" departLane="best">
        <route edges="-5962129#3 -5962129#2 419814433#2 419814433#4 641705065 634644489 36054466#0 36054466#1 36054466#3 36054466#4 36054466#5"/>
    </vehicle>
    <vehicle id="moto110" type="moto_motorcycle" depart="935.00" departLane="best">
        <route edges="89927838#3 36054466#0 36054466#1 36054466#3 36054466#4 641705063#2 641705063#3 641705064#0 436291031 436291062 436291064#1"/>
    </vehicle>
    <vehicle id="moto111" type="moto_motorcycle" depart="943.50" departLane="best">
        <route edges="436291031 436291016#0 5955850#0 6024091#2 6024091#3"/>
    </vehicle>
    <vehicle id="moto112" type="moto_motorcycle" depart="952.00" departLane="best" departSpeed="max">
        <route edges="-593766962#1 -593766960 593766961 436291018 641705063#0 641705063#1 36054466#5 36054466#6 36054466#7 36054466#8 36054466#9 5962129#4 5962129#5 gneE0 593766960"/>
    </vehicle>
    <vehicle id="moto115" type="moto_motorcycle" depart="977.50" departLane="best">
        <route edges="-593766965 -5962129#4 -5962129#3 -5962129#2 419814433#2 419814433#4 641705065 634644489 -89927838#3"/>
    </vehicle>
    <vehicle id="moto116" type="moto_motorcycle" depart="986.00" departLane="best">
        <route edges="593766960 593766962#0 -593766962#1 -593766960 593766961 436291018 641705063#0 641705063#1 641705063#2 641705063#3 641705064#0 436291031 436291016#0 5962129#0"/>
    </vehicle>
    <vehicle id="moto117" type="moto_motorcycle" depart="994.50" departLane="best">
        <route edges="36054466#0 36054466#1 36054466#3 36054466#4 36054466#5 36054466#6 36054466#7 36054466#8 36054466#9 -5962129#3 -5962129#2"/>
    </vehicle>
    <vehicle id="moto118" type="moto_motorcycle" depart="1003.00" departLane="best">
        <route edges="642337374#1 642337373 234953562 634644489 36054466#0 36054466#1"/>
    </vehicle>
    <vehicle id="moto119" type="moto_motorcycle" depart="1011.50" departLane="best">
        <route edges="593766960 593766962#0"/>
    </vehicle>
    <vehicle id="moto120" type="moto_motorcycle" depart="1020.00" departLane="best">
        <route edges="436291013 436291011 436291010 436291016#0 5962129#0 5962129#2 5962129#3 5962129#4 5962129#5 gneE0 593766960"/>
    </vehicle>
    <vehicle id="moto121" type="moto_motorcycle" depart="1028.50" departLane="best" departSpeed="max">
        <route edges="436291021#0 593766961 436291018 436291020#0 436291020#2 436291019 642751754#0 642751754#1"/>
    </vehicle>
    <vehicle id="moto122" type="moto_motorcycle" depart="1037.00" departLane="best">
        <route edges="234953562 -641705065 -419814433#4 -419814433#2 5962129#2 5962129#3 5962129#4 5962129#5"/>
    </vehicle>
    <vehicle id="moto123" type="moto_motorcycle" depart="1045.50" departLane="best">
        <route edges="36054466#0 36054466#1 36054466#3 36054466#4 641705063#2 641705063#3 641705064#0 436291031 436291062 436291064#1 642337372 642337373 436291011 436291010"/>
    </vehicle>
    <vehicle id="moto124" type="moto_motorcycle" depart="1054.00" departLane="best">
        <route edges="5962129#3 5962129#4 5962129#5 gneE0 593766961 436291018 641705063#0 641705063#1 36054466#5"/>
    </vehicle>
    <vehicle id="moto125" type="moto_motorcycle" depart="1062.50" departLane="best">
        <route edges="36054466#8 36054466#9 -5962129#3 -5962129#2 -5962129#1 5955850#0 6024091#2 6024091#3 6024091#5"/>
    </vehicle>
    <vehicle id="moto126" type="moto_motorcycle" depart="1071.00" departLane="best">
        <route edges="-593766965 -5962129#4 -5962129#3 -5962129#2 -5962129#1 436291016#4"/>
    </vehicle>
    <vehicle id="moto127" type="moto_motorcycle" depart="1079.50" departLane="best">
        <route edges="gneE1"/>
    </vehicle>
    <vehicle id="moto128" type="moto_motorcycle" depart="1088.00" departLane="best">
        <route edges="-593766965 -5962129#4 -5962129#3 -5962129#2 419814433#2 419814433#4 641705065 634644489 278328405#0"/>
    </vehicle>
    <vehicle id="moto129" type="moto_motorcycle" depart="1096.50" departLane="best">
        <route edges="36054466#3 36054466#4 641705063#2 641705063#3 641705065 634644489 278328405#0 642751754#0 642751754#1"/>
    </vehicle>
    <vehicle id="moto130" type="moto_motorcycle" depart="1105.00" departLane="best" departSpeed="max">
        <route edges="642337374#0 642337374#1 642337373"/>
    </vehicle>
    <vehicle id="moto131" type="moto_motorcycle" depart="1113.50" departLane="best">
        <route edges="419814433#1 419814433#2 419814433#4 641705064#0 436291031 436291062 436291064#1 642337372 642337373 234953562 -641705065"/>
    </vehicle>
    <vehicle id="moto133" type="moto_motorcycle" depart="1130.50" departLane="best">
        <route edges="593766961 436291018 641705063#0 641705063#1 36054466#5 36054466#6 36054466#7 36054466#8 36054466#9 5962129#4 5962129#5 gneE0"/>
    </vehicle>
    <vehicle id="moto134" type="moto_motorcycle" depart="1139.00" departLane="best">
        <route edges="5962129#2 5962129#3 5962129#4 5962129#5 gneE0 593766961 436291018 641705063#0 641705063#1 641705063#2 641705063#3 -419814433#4 -419814433#2 -419814433#1 -419814433#0"/>
    </vehicle>
    <vehicle id="moto136" type="moto_motorcycle" depart="1156.00" departLane="best">
        <route edges="5962129#3 5962129#4 5962129#5 gneE0 593766961 436291018 436291020#0 436291020#2 436291019 642751754#0 642751754#1"/>
    </vehicle>
    <vehicle id="moto137" type="moto_motorcycle" depart="1164.50" departLane="best">
        <route edges="-5962129#1 5955850#0 6024091#2 6024091#3 6024091#5 642337372 642337373 234953562 634644489 36054466#0 36054466#1 36054466#3 36054466#4 36054466#5 36054466#6 36054466#7 36054466#8 36054466#9 -5962129#3 -5962129#2"/>
    </vehicle>
    <vehicle id="moto138" type="moto_motorcycle" depart="1173.00" departLane="best" departSpeed="max">
        <route edges="-5955850#2 -5955850#1 -5955850#0 5962129#0 419814433#2 419814433#4 641705064#0 436291031"/>
    </vehicle>
    <vehicle id="moto139" type="moto_motorcycle" depart="1181.50" departLane="best">
        <route edges="36054466#4 36054466#5 36054466#6 36054466#7 36054466#8 36054466#9 5962129#4 5962129#5 gneE0 593766960 593766962#0"/>
    </vehicle>
    <vehicle id="moto140" type="moto_motorcycle" depart="1190.00" departLane="best">
        <route edges="6024091#3 6024091#5 642337372 642337373 234953562"/>
    </vehicle>
    <vehicle id="moto144" type="moto_motorcycle" depart="1224.00" departLane="best">
        <route edges="436291013 234953562 634644489 36054466#0 36054466#1 36054466#3"/>
    </vehicle>
    <vehicle id="moto145" type="moto_motorcycle" depart="1232.50" departLane="best">
        <route edges="-419814433#1 -419814433#0 419814433#0 419814433#1 419814433#2 419814433#4 641705065 634644489"/>
    </vehicle>
    <vehicle id="moto147" type="moto_motorcycle" depart="1249.50" departLane="best">
        <route edges="634644489 36054466#0 36054466#1 36054466#3 36054466#4 641705063#2 641705063#3 641705064#0 436291031"/>
    </vehicle>
    <vehicle id="moto148" type="moto_motorcycle" depart="1258.00" departLane="best">
        <route edges="436291013 234953562 -641705065 -419814433#4 -419814433#2 -419814433#1 -419814433#0"/>
    </vehicle>
    <vehicle id="moto149" type="moto_motorcycle" depart="1266.50" departLane="best">
        <route edges="-593766965 -5962129#4 -5962129#3 -5962129#2 419814433#2 419814433#4 641705064#0 436291031 436291062 436291064#1 642337372 642337373"/>
    </vehicle>
    <vehicle id="moto152" type="moto_motorcycle" depart="1292.00" departLane="best">
        <route edges="-5962129#2 419814433#2 419814433#4 641705065 634644489 36054466#0 36054466#1 36054466#3 36054466#4 36054466#5 36054466#6 36054466#7 36054466#8 36054466#9 -5962129#3"/>
    </vehicle>
    <vehicle id="moto153" type="moto_motorcycle" depart="1300.50" departLane="best">
        <route edges="36054466#7 36054466#8 36054466#9 -5962129#3 -5962129#2 419814433#2 419814433#4 641705064#0 436291031 436291062 436291064#1 642361032"/>
    </vehicle>