<?xml version="1.0" encoding="UTF-8"?>
<!-- generated on 2020-06-08 13:08:29.219627 by randomTrips.py v1_6_0+0003-190709904e
  options: -n osm.net.xml <doubleminus>seed 42 <doubleminus>fringe-factor 1 -p 3.5 -o osm.pedestrian.trips.xml -e 1800 -r osm.pedestrian.rou.xml <doubleminus>vehicle-class pedestrian <doubleminus>pedestrians <doubleminus>prefix ped <doubleminus>max-distance 2000
-->
<routes xmlns:xsi="http://www.w3.org/2001/XMLSchema-instance" xsi:noNamespaceSchemaLocation="http://sumo.dlr.de/xsd/routes_file.xsd">
    <vType id="ped_pedestrian" vClass="pedestrian"/>
    <person id="ped0" depart="0.00" type="ped_pedestrian">
        <walk from="578934723" to="-419814433#1"/>
    </person>
    <person id="ped1" depart="3.50" type="ped_pedestrian">
        <walk from="-5955850#0" to="-578942371#0"/>
    </person>
    <person id="ped2" depart="7.00" type="ped_pedestrian">
        <walk from="578942365" to="578942354#0"/>
    </person>
    <person id="ped3" depart="10.50" type="ped_pedestrian">
        <walk from="634644489" to="-578934698"/>
    </person>
    <person id="ped4" depart="14.00" type="ped_pedestrian">
        <walk from="436291011" to="-419814433#2"/>
    </person>
    <person id="ped5" depart="17.50" type="ped_pedestrian">
        <walk from="-578942370" to="578605861#1"/>
    </person>
    <person id="ped6" depart="21.00" type="ped_pedestrian">
        <walk from="-419814433#2" to="-578942365"/>
    </person>
    <person id="ped7" depart="24.50" type="ped_pedestrian">
        <walk from="578934724#2" to="578934691#1"/>
    </person>
    <person id="ped8" depart="28.00" type="ped_pedestrian">
        <walk from="-578942370" to="578934713#0"/>
    </person>
    <person id="ped9" depart="31.50" type="ped_pedestrian">
        <walk from="578942375" to="-184711460"/>
    </person>
    <person id="ped10" depart="35.00" type="ped_pedestrian">
        <walk from="578942372#2" to="578942360#0"/>
    </person>
    <person id="ped11" depart="38.50" type="ped_pedestrian">
        <walk from="278328405#1" to="-578934723"/>
    </person>
    <person id="ped12" depart="42.00" type="ped_pedestrian">
        <walk from="642361032" to="278328405#0"/>
    </person>
    <person id="ped13" depart="45.50" type="ped_pedestrian">
        <walk from="-578934699" to="-578934700#1"/>
    </person>
    <person id="ped14" depart="49.00" type="ped_pedestrian">
        <walk from="5962129#0" to="578934717#0"/>
    </person>
    <person id="ped15" depart="52.50" type="ped_pedestrian">
        <walk from="578942372#2" to="578942364"/>
    </person>
    <person id="ped16" depart="56.00" type="ped_pedestrian">
        <walk from="578934691#0" to="89922370#0"/>
    </person>
    <person id="ped17" depart="59.50" type="ped_pedestrian">
        <walk from="36054466#6" to="578934698"/>
    </person>
    <person id="ped18" depart="63.00" type="ped_pedestrian">
        <walk from="5955850#0" to="578934718#1"/>
    </person>
    <person id="ped19" depart="66.50" type="ped_pedestrian">
        <walk from="5962129#4" to="578934711"/>
    </person>
    <person id="ped20" depart="70.00" type="ped_pedestrian">
        <walk from="578942360#1" to="-578605861#2"/>
    </person>
    <person id="ped21" depart="73.50" type="ped_pedestrian">
        <walk from="-578942371#1" to="-5962129#1"/>
    </person>
    <person id="ped22" depart="77.00" type="ped_pedestrian">
        <walk from="-578934691#1" to="-578942371#2"/>
    </person>
    <person id="ped23" depart="80.50" type="ped_pedestrian">
        <walk from="-578934700#1" to="-5955850#1"/>
    </person>
    <person id="ped24" depart="84.00" type="ped_pedestrian">
        <walk from="578934722" to="36054466#4"/>
    </person>
    <person id="ped25" depart="87.50" type="ped_pedestrian">
        <walk from="36054466#5" to="-578942367#1"/>
    </person>
    <person id="ped26" depart="91.00" type="ped_pedestrian">
        <walk from="-593766962#1" to="642337372"/>
    </person>
    <person id="ped27" depart="94.50" type="ped_pedestrian">
        <walk from="578934724#2" to="578934717#1"/>
    </person>
    <person id="ped28" depart="98.00" type="ped_pedestrian">
        <walk from="-578942334" to="578942364"/>
    </person>
    <person id="ped29" depart="101.50" type="ped_pedestrian">
        <walk from="-578942331" to="36054466#7"/>
    </person>
    <person id="ped30" depart="105.00" type="ped_pedestrian">
        <walk from="89927838#3" to="578934723"/>
    </person>
    <person id="ped31" depart="108.50" type="ped_pedestrian">
        <walk from="578934699" to="578942355"/>
    </person>
    <person id="ped32" depart="112.00" type="ped_pedestrian">
        <walk from="5955850#2" to="578942370"/>
    </person>
    <person id="ped33" depart="115.50" type="ped_pedestrian">
        <walk from="-578942371#1" to="-419814433#4"/>
    </person>
    <person id="ped34" depart="119.00" type="ped_pedestrian">
        <walk from="-89927838#0" to="-593766965"/>
    </person>
    <person id="ped35" depart="122.50" type="ped_pedestrian">
        <walk from="-578942367#1" to="642337373"/>
    </person>
    <person id="ped36" depart="126.00" type="ped_pedestrian">
        <walk from="6024091#3" to="-89927838#0"/>
    </person>
    <person id="ped37" depart="129.50" type="ped_pedestrian">
        <walk from="578934726" to="419814433#0"/>
    </person>
    <person id="ped38" depart="133.00" type="ped_pedestrian">
        <walk from="641705064#0" to="436291019"/>
    </person>
    <person id="ped39" depart="136.50" type="ped_pedestrian">
        <walk from="-593766962#1" to="-578942372#1"/>
    </person>
    <person id="ped40" depart="140.00" type="ped_pedestrian">
        <walk from="578934700#1" to="-593766962#1"/>
    </person>
    <person id="ped41" depart="143.50" type="ped_pedestrian">
        <walk from="578934712" to="641705063#0"/>
    </person>
    <person id="ped42" depart="147.00" type="ped_pedestrian">
        <walk from="419814433#1" to="-578942370"/>
    </person>
    <person id="ped43" depart="150.50" type="ped_pedestrian">
        <walk from="gneE1" to="578605861#1"/>
    </person>
    <person id="ped44" depart="154.00" type="ped_pedestrian">
        <walk from="-578934699" to="-578605861#2"/>
    </person>
    <person id="ped45" depart="157.50" type="ped_pedestrian">
        <walk from="-578934709#1" to="578934719"/>
    </person>
    <person id="ped46" depart="161.00" type="ped_pedestrian">
        <walk from="578942371#2" to="436291011"/>
    </person>
    <person id="ped47" depart="164.50" type="ped_pedestrian">
        <walk from="-578934689" to="36054466#7"/>
    </person>
    <person id="ped48" depart="168.00" type="ped_pedestrian">
        <walk from="gneE1" to="578934689"/>
    </person>
    <person id="ped49" depart="171.50" type="ped_pedestrian">
        <walk from="89922370#0" to="5962129#4"/>
    </person>
    <person id="ped50" depart="175.00" type="ped_pedestrian">
        <walk from="-184711461" to="578942362"/>
    </person>
    <person id="ped51" depart="178.50" type="ped_pedestrian">
        <walk from="578942354#1" to="578934691#0"/>
    </person>
    <person id="ped52" depart="182.00" type="ped_pedestrian">
        <walk from="-593766962#1" to="578934723"/>
    </person>
    <person id="ped53" depart="185.50" type="ped_pedestrian">
        <walk from="-578934711" to="436291016#10"/>
    </person>
    <person id="ped54" depart="189.00" type="ped_pedestrian">
        <walk from="436291018" to="642337374#1"/>
    </person>
    <person id="ped55" depart="192.50" type="ped_pedestrian">
        <walk from="6024091#3" to="-593766962#1"/>
    </person>
    <person id="ped56" depart="196.00" type="ped_pedestrian">
        <walk from="578605861#0" to="-578942355"/>
    </person>
    <person id="ped57" depart="199.50" type="ped_pedestrian">
        <walk from="641705063#3" to="6024091#2"/>
    </person>
    <person id="ped58" depart="203.00" type="ped_pedestrian">
        <walk from="-5962129#3" to="578934723"/>
    </person>
    <person id="ped59" depart="206.50" type="ped_pedestrian">
        <walk from="578934717#1" to="-578934723"/>
    </person>
    <person id="ped60" depart="210.00" type="ped_pedestrian">
        <walk from="578942368#1" to="578934691#0"/>
    </person>
    <person id="ped61" depart="213.50" type="ped_pedestrian">
        <walk from="578942371#0" to="578934690"/>
    </person>
    <person id="ped62" depart="217.00" type="ped_pedestrian">
        <walk from="-184711458" to="132579327"/>
    </person>
    <person id="ped63" depart="220.50" type="ped_pedestrian">
        <walk from="-419814433#0" to="641705146#0"/>
    </person>
    <person id="ped64" depart="224.00" type="ped_pedestrian">
        <walk from="6024091#3" to="5955850#0"/>
    </person>
    <person id="ped65" depart="227.50" type="ped_pedestrian">
        <walk from="-5962129#4" to="-578605862#2"/>
    </person>
    <person id="ped66" depart="231.00" type="ped_pedestrian">
        <walk from="6024091#3" to="642337374#0"/>
    </person>
    <person id="ped67" depart="234.50" type="ped_pedestrian">
        <walk from="-578934692" to="436291062"/>
    </person>
    <person id="ped68" depart="238.00" type="ped_pedestrian">
        <walk from="-578934690" to="578942368#1"/>
    </person>
    <person id="ped69" depart="241.50" type="ped_pedestrian">
        <walk from="578942369#0" to="-578934717#1"/>
    </person>
    <person id="ped70" depart="245.00" type="ped_pedestrian">
        <walk from="436291029" to="578934692"/>
    </person>
    <person id="ped71" depart="248.50" type="ped_pedestrian">
        <walk from="-593766962#1" to="6024091#2"/>
    </person>
    <person id="ped72" depart="252.00" type="ped_pedestrian">
        <walk from="436291011" to="-578942367#1"/>
    </person>
    <person id="ped73" depart="255.50" type="ped_pedestrian">
        <walk from="578934691#0" to="578942364"/>
    </person>
    <person id="ped74" depart="259.00" type="ped_pedestrian">
        <walk from="-578942365" to="-641705065"/>
    </person>
    <person id="ped75" depart="262.50" type="ped_pedestrian">
        <walk from="gneE1" to="578934724#2"/>
    </person>
    <person id="ped76" depart="266.00" type="ped_pedestrian">
        <walk from="436291016#10" to="578605862#0"/>
    </person>
    <person id="ped77" depart="269.50" type="ped_pedestrian">
        <walk from="-578934712" to="-578942371#0"/>
    </person>
    <person id="ped78" depart="273.00" type="ped_pedestrian">
        <walk from="278328405#0" to="578934713#0"/>
    </person>
    <person id="ped79" depart="276.50" type="ped_pedestrian">
        <walk from="-578942371#1" to="-578942370"/>
    </person>
    <person id="ped80" depart="280.00" type="ped_pedestrian">
        <walk from="-578934691#0" to="578934719"/>
    </person>
    <person id="ped81" depart="283.50" type="ped_pedestrian">
        <walk from="-578942371#1" to="641705063#2"/>
    </person>
    <person id="ped82" depart="287.00" type="ped_pedestrian">
        <walk from="5962129#4" to="-578934691#0"/>
    </person>
    <person id="ped83" depart="290.50" type="ped_pedestrian">
        <walk from="-578942372#0" to="578942335"/>
    </person>
    <person id="ped84" depart="294.00" type="ped_pedestrian">
        <walk from="-578942367#2" to="-578934718#0"/>
    </person>
    <person id="ped85" depart="297.50" type="ped_pedestrian">
        <walk from="642337372" to="578934709#1"/>
    </person>
    <person id="ped86" depart="301.00" type="ped_pedestrian">
        <walk from="436291021#0" to="578942371#1"/>
    </person>
    <person id="ped87" depart="304.50" type="ped_pedestrian">
        <walk from="578942372#2" to="-578942358"/>
    </person>
    <person id="ped88" depart="308.00" type="ped_pedestrian">
        <walk from="-578934700#1" to="436291016#0"/>
    </person>
    <person id="ped89" depart="311.50" type="ped_pedestrian">
        <walk from="436291011" to="436291020#2"/>
    </person>
    <person id="ped90" depart="315.00" type="ped_pedestrian">
        <walk from="578942364" to="578942354#0"/>
    </person>
    <person id="ped91" depart="318.50" type="ped_pedestrian">
        <walk from="89927838#0" to="-578934700#1"/>
    </person>
    <person id="ped92" depart="322.00" type="ped_pedestrian">
        <walk from="419814433#1" to="278328405#1"/>
    </person>
    <person id="ped93" depart="325.50" type="ped_pedestrian">
        <walk from="5962129#4" to="-578942372#2"/>
    </person>
    <person id="ped94" depart="329.00" type="ped_pedestrian">
        <walk from="-578942358" to="436291016#9"/>
    </person>
    <person id="ped95" depart="332.50" type="ped_pedestrian">
        <walk from="436291011" to="-5955850#1"/>
    </person>
    <person id="ped96" depart="336.00" type="ped_pedestrian">
        <walk from="-578942372#2" to="641705065"/>
    </person>
    <person id="ped97" depart="339.50" type="ped_pedestrian">
        <walk from="436291016#4" to="5962129#4"/>
    </person>
    <person id="ped98" depart="343.00" type="ped_pedestrian">
        <walk from="578934692" to="-578605862#0"/>
    </person>
    <person id="ped99" depart="346.50" type="ped_pedestrian">
        <walk from="gneE1" to="5955850#1"/>
    </person>
    <person id="ped100" depart="350.00" type="ped_pedestrian">
        <walk from="642751754#1" to="641705146#0"/>
    </person>
    <person id="ped101" depart="353.50" type="ped_pedestrian">
        <walk from="5962129#2" to="-578942331"/>
    </person>
    <person id="ped102" depart="357.00" type="ped_pedestrian">
        <walk from="436291062" to="-578942367#2"/>
    </person>
    <person id="ped103" depart="360.50" type="ped_pedestrian">
        <walk from="419814433#1" to="-578605862#2"/>
    </person>
    <person id="ped104" depart="364.00" type="ped_pedestrian">
        <walk from="36054466#7" to="89927838#3"/>
    </person>
    <person id="ped105" depart="367.50" type="ped_pedestrian">
        <walk from="-593766962#1" to="578942371#1"/>
    </person>
    <person id="ped106" depart="371.00" type="ped_pedestrian">
        <walk from="436291019" to="436291011"/>
    </person>
    <person id="ped107" depart="374.50" type="ped_pedestrian">
        <walk from="642361032" to="gneE1"/>
    </person>
    <person id="ped108" depart="378.00" type="ped_pedestrian">
        <walk from="578934699" to="578942362"/>
    </person>
    <person id="ped109" depart="381.50" type="ped_pedestrian">
        <walk from="-578934723" to="-5962129#2"/>
    </person>
    <person id="ped110" depart="385.00" type="ped_pedestrian">
        <walk from="642751754#1" to="578934711"/>
    </person>
    <person id="ped111" depart="388.50" type="ped_pedestrian">
        <walk from="578934691#1" to="578942367#2"/>
    </person>
    <person id="ped112" depart="392.00" type="ped_pedestrian">
        <walk from="-578605862#2" to="578934712"/>
    </person>
    <person id="ped113" depart="395.50" type="ped_pedestrian">
        <walk from="578605861#0" to="5962129#2"/>
    </person>
    <person id="ped114" depart="399.00" type="ped_pedestrian">
        <walk from="-578934726" to="642751754#0"/>
    </person>
    <person id="ped115" depart="402.50" type="ped_pedestrian">
        <walk from="-578934691#1" to="-578942357"/>
    </person>
    <person id="ped116" depart="406.00" type="ped_pedestrian">
        <walk from="578934713#1" to="578942354#0"/>
    </person>
    <person id="ped117" depart="409.50" type="ped_pedestrian">
        <walk from="-578942371#2" to="-578934712"/>
    </person>
    <person id="ped118" depart="413.00" type="ped_pedestrian">
        <walk from="634644489" to="-578942372#1"/>
    </person>
    <person id="ped119" depart="416.50" type="ped_pedestrian">
        <walk from="578934713#1" to="578934718#1"/>
    </person>
    <person id="ped120" depart="420.00" type="ped_pedestrian">
        <walk from="436291011" to="578934712"/>
    </person>
    <person id="ped121" depart="423.50" type="ped_pedestrian">
        <walk from="578605862#2" to="642337372"/>
    </person>
    <person id="ped122" depart="427.00" type="ped_pedestrian">
        <walk from="-578942367#0" to="578942361#1"/>
    </person>
    <person id="ped123" depart="430.50" type="ped_pedestrian">
        <walk from="-578942372#0" to="419814433#0"/>
    </person>
    <person id="ped124" depart="434.00" type="ped_pedestrian">
        <walk from="578942335" to="-5962129#3"/>
    </person>
    <person id="ped125" depart="437.50" type="ped_pedestrian">
        <walk from="-89927838#0" to="578942367#2"/>
    </person>
    <person id="ped126" depart="441.00" type="ped_pedestrian">
        <walk from="-578934691#0" to="436291019"/>
    </person>
    <person id="ped127" depart="444.50" type="ped_pedestrian">
        <walk from="gneE1" to="gneE1"/>
    </person>
    <person id="ped128" depart="448.00" type="ped_pedestrian">
        <walk from="-578934691#0" to="-578942367#2"/>
    </person>
    <person id="ped129" depart="451.50" type="ped_pedestrian">
        <walk from="-593766962#1" to="641705146#1"/>
    </person>
    <person id="ped130" depart="455.00" type="ped_pedestrian">
        <walk from="6024091#5" to="6024091#5"/>
    </person>
    <person id="ped131" depart="458.50" type="ped_pedestrian">
        <walk from="36054466#5" to="-578934726"/>
    </person>
    <person id="ped132" depart="462.00" type="ped_pedestrian">
        <walk from="5955850#1" to="578942360#1"/>
    </person>
    <person id="ped133" depart="465.50" type="ped_pedestrian">
        <walk from="578934718#0" to="89927838#3"/>
    </person>
    <person id="ped134" depart="469.00" type="ped_pedestrian">
        <walk from="578934726" to="-184711460"/>
    </person>
    <person id="ped135" depart="472.50" type="ped_pedestrian">
        <walk from="593766960" to="-5962129#3"/>
    </person>
    <person id="ped136" depart="476.00" type="ped_pedestrian">
        <walk from="578942334" to="642337372"/>
    </person>
    <person id="ped137" depart="479.50" type="ped_pedestrian">
        <walk from="-578934718#0" to="-578934711"/>
    </person>
    <person id="ped138" depart="483.00" type="ped_pedestrian">
        <walk from="-578934709#1" to="578934698"/>
    </person>
    <person id="ped139" depart="486.50" type="ped_pedestrian">
        <walk from="-593766965" to="578934717#0"/>
    </person>
    <person id="ped140" depart="490.00" type="ped_pedestrian">
        <walk from="578942362" to="-578942367#0"/>
    </person>
    <person id="ped141" depart="493.50" type="ped_pedestrian">
        <walk from="578934722" to="-593766962#1"/>
    </person>
    <person id="ped142" depart="497.00" type="ped_pedestrian">
        <walk from="436291062" to="641705063#2"/>
    </person>
    <person id="ped143" depart="500.50" type="ped_pedestrian">
        <walk from="5962129#0" to="-578934699"/>
    </person>
    <person id="ped144" depart="504.00" type="ped_pedestrian">
        <walk from="436291011" to="-5955850#0"/>
    </person>
    <person id="ped145" depart="507.50" type="ped_pedestrian">
        <walk from="-184711458" to="578942369#1"/>
    </person>
    <person id="ped146" depart="511.00" type="ped_pedestrian">
        <walk from="578934723" to="-593766960"/>
    </person>
    <person id="ped147" depart="514.50" type="ped_pedestrian">
        <walk from="578942367#0" to="578934698"/>
    </person>
    <person id="ped148" depart="518.00" type="ped_pedestrian">
        <walk from="436291013" to="-184711460"/>
    </person>
    <person id="ped149" depart="521.50" type="ped_pedestrian">
        <walk from="-578934691#0" to="6024091#5"/>
    </person>
    <person id="ped150" depart="525.00" type="ped_pedestrian">
        <walk from="641705063#1" to="578934692"/>
    </person>
    <person id="ped151" depart="528.50" type="ped_pedestrian">
        <walk from="5955850#1" to="578934712"/>
    </person>
    <person id="ped152" depart="532.00" type="ped_pedestrian">
        <walk from="-578934719" to="-578934717#1"/>
    </person>
    <person id="ped153" depart="535.50" type="ped_pedestrian">
        <walk from="-641705065" to="641705063#0"/>
    </person>
    <person id="ped154" depart="539.00" type="ped_pedestrian">
        <walk from="578942372#0" to="5962129#4"/>
    </person>
    <person id="ped155" depart="542.50" type="ped_pedestrian">
        <walk from="641705063#0" to="-578942367#1"/>
    </person>
    <person id="ped156" depart="546.00" type="ped_pedestrian">
        <walk from="-578942372#2" to="-578934709#0"/>
    </person>
    <person id="ped157" depart="549.50" type="ped_pedestrian">
        <walk from="578942371#0" to="623099335"/>
    </person>
    <person id="ped158" depart="553.00" type="ped_pedestrian">
        <walk from="419814433#2" to="578934718#1"/>
    </person>
    <person id="ped159" depart="556.50" type="ped_pedestrian">
        <walk from="-578934723" to="641705146#1"/>
    </person>
    <person id="ped160" depart="560.00" type="ped_pedestrian">
        <walk from="5962129#5" to="89922370#5"/>
    </person>
    <person id="ped161" depart="563.50" type="ped_pedestrian">
        <walk from="578942375" to="6024091#5"/>
    </person>
    <person id="ped162" depart="567.00" type="ped_pedestrian">
        <walk from="-419814433#1" to="578942365"/>
    </person>
    <person id="ped163" depart="570.50" type="ped_pedestrian">
        <walk from="234953562" to="641705146#1"/>
    </person>
    <person id="ped164" depart="574.00" type="ped_pedestrian">
        <walk from="578942372#1" to="5962129#5"/>
    </person>
    <person id="ped165" depart="577.50" type="ped_pedestrian">
        <walk from="578942375" to="-593766962#1"/>
    </person>
    <person id="ped166" depart="581.00" type="ped_pedestrian">
        <walk from="578942371#1" to="-578934709#1"/>
    </person>
    <person id="ped167" depart="584.50" type="ped_pedestrian">
        <walk from="6024091#2" to="5962129#4"/>
    </person>
    <person id="ped168" depart="588.00" type="ped_pedestrian">
        <walk from="-578942371#0" to="593766960"/>
    </person>
    <person id="ped169" depart="591.50" type="ped_pedestrian">
        <walk from="436291020#0" to="-5962129#4"/>
    </person>
    <person id="ped170" depart="595.00" type="ped_pedestrian">
        <walk from="578942372#0" to="-578942371#1"/>
    </person>
    <person id="ped171" depart="598.50" type="ped_pedestrian">
        <walk from="-419814433#1" to="-578942364"/>
    </person>
    <person id="ped172" depart="602.00" type="ped_pedestrian">
        <walk from="132579327" to="5962129#5"/>
    </person>
    <person id="ped173" depart="605.50" type="ped_pedestrian">
        <walk from="642751754#1" to="-5955850#1"/>
    </person>
    <person id="ped174" depart="609.00" type="ped_pedestrian">
        <walk from="578934724#0" to="419814433#1"/>
    </person>
    <person id="ped175" depart="612.50" type="ped_pedestrian">
        <walk from="89927838#0" to="578934691#0"/>
    </person>
    <person id="ped176" depart="616.00" type="ped_pedestrian">
        <walk from="642337372" to="-578934711"/>
    </person>
    <person id="ped177" depart="619.50" type="ped_pedestrian">
        <walk from="89922370#0" to="-578942355"/>
    </person>
    <person id="ped178" depart="623.00" type="ped_pedestrian">
        <walk from="642751754#0" to="-593766962#1"/>
    </person>
    <person id="ped179" depart="626.50" type="ped_pedestrian">
        <walk from="-578934709#1" to="436291016#10"/>
    </person>
    <person id="ped180" depart="630.00" type="ped_pedestrian">
        <walk from="578942364" to="-89927838#0"/>
    </person>
    <person id="ped181" depart="633.50" type="ped_pedestrian">
        <walk from="578934717#1" to="578605861#2"/>
    </person>
    <person id="ped182" depart="637.00" type="ped_pedestrian">
        <walk from="36054466#8" to="578934711"/>
    </person>
    <person id="ped183" depart="640.50" type="ped_pedestrian">
        <walk from="-578942375" to="578942361#0"/>
    </person>
    <person id="ped184" depart="644.00" type="ped_pedestrian">
        <walk from="-184711458" to="641705146#0"/>
    </person>
    <person id="ped185" depart="647.50" type="ped_pedestrian">
        <walk from="578934691#0" to="578942362"/>
    </person>
    <person id="ped186" depart="651.00" type="ped_pedestrian">
        <walk from="578942367#0" to="578942335"/>
    </person>
    <person id="ped187" depart="654.50" type="ped_pedestrian">
        <walk from="36054466#4" to="-578934690"/>
    </person>
    <person id="ped188" depart="658.00" type="ped_pedestrian">
        <walk from="578942334" to="234953562"/>
    </person>
    <person id="ped189" depart="661.50" type="ped_pedestrian">
        <walk from="-89927838#0" to="5962129#0"/>
    </person>
    <person id="ped190" depart="665.00" type="ped_pedestrian">
        <walk from="578942362" to="-5962129#3"/>
    </person>
    <person id="ped191" depart="668.50" type="ped_pedestrian">
        <walk from="-641705065" to="419814433#2"/>
    </person>
    <person id="ped192" depart="672.00" type="ped_pedestrian">
        <walk from="419814433#1" to="-5962129#2"/>
    </person>
    <person id="ped193" depart="675.50" type="ped_pedestrian">
        <walk from="-578934717#1" to="436291011"/>
    </person>
    <person id="ped194" depart="679.00" type="ped_pedestrian">
        <walk from="642337373" to="578942354#1"/>
    </person>
    <person id="ped195" depart="682.50" type="ped_pedestrian">
        <walk from="641705063#1" to="578934718#0"/>
    </person>
    <person id="ped196" depart="686.00" type="ped_pedestrian">
        <walk from="-5962129#3" to="578934692"/>
    </person>
    <person id="ped197" depart="689.50" type="ped_pedestrian">
        <walk from="-184711458" to="-5955850#2"/>
    </person>
    <person id="ped198" depart="693.00" type="ped_pedestrian">
        <walk from="436291016#0" to="578934711"/>
    </person>
    <person id="ped199" depart="696.50" type="ped_pedestrian">
        <walk from="578934726" to="436291020#2"/>
    </person>
    <person id="ped200" depart="700.00" type="ped_pedestrian">
        <walk from="436291016#4" to="-578942367#2"/>
    </person>
    <person id="ped201" depart="703.50" type="ped_pedestrian">
        <walk from="436291021#0" to="641705063#1"/>
    </person>
    <person id="ped202" depart="707.00" type="ped_pedestrian">
        <walk from="578942372#0" to="-578942334"/>
    </person>
    <person id="ped203" depart="710.50" type="ped_pedestrian">
        <walk from="-578934692" to="578605862#0"/>
    </person>
    <person id="ped204" depart="714.00" type="ped_pedestrian">
        <walk from="578934722" to="278328405#0"/>
    </person>
    <person id="ped205" depart="717.50" type="ped_pedestrian">
        <walk from="593766961" to="578942367#2"/>
    </person>
    <person id="ped206" depart="721.00" type="ped_pedestrian">
        <walk from="578942354#0" to="-578942371#0"/>
    </person>
    <person id="ped207" depart="724.50" type="ped_pedestrian">
        <walk from="-578942365" to="-419814433#1"/>
    </person>
    <person id="ped208" depart="728.00" type="ped_pedestrian">
        <walk from="-578942372#1" to="436291029"/>
    </person>
    <person id="ped209" depart="731.50" type="ped_pedestrian">
        <walk from="5962129#2" to="-578934691#0"/>
    </person>
    <person id="ped210" depart="735.00" type="ped_pedestrian">
        <walk from="436291010" to="578934719"/>
    </person>
    <person id="ped211" depart="738.50" type="ped_pedestrian">
        <walk from="-578942364" to="578942358"/>
    </person>
    <person id="ped212" depart="742.00" type="ped_pedestrian">
        <walk from="436291064#1" to="-578942372#1"/>
    </person>
    <person id="ped213" depart="745.50" type="ped_pedestrian">
        <walk from="578934726" to="-184711460"/>
    </person>
    <person id="ped214" depart="749.00" type="ped_pedestrian">
        <walk from="578942367#2" to="578942369#1"/>
    </person>
    <person id="ped215" depart="752.50" type="ped_pedestrian">
        <walk from="-578934709#1" to="436291013"/>
    </person>
    <person id="ped216" depart="756.00" type="ped_pedestrian">
        <walk from="-578942344" to="642361032"/>
    </person>
    <person id="ped217" depart="759.50" type="ped_pedestrian">
        <walk from="578605862#0" to="-578605861#2"/>
    </person>
    <person id="ped218" depart="763.00" type="ped_pedestrian">
        <walk from="-578942372#2" to="5962129#0"/>
    </person>
    <person id="ped219" depart="766.50" type="ped_pedestrian">
        <walk from="436291019" to="578942372#1"/>
    </person>
    <person id="ped220" depart="770.00" type="ped_pedestrian">
        <walk from="578942335" to="89927838#3"/>
    </person>
    <person id="ped221" depart="773.50" type="ped_pedestrian">
        <walk from="578934713#1" to="642337374#1"/>
    </person>
    <person id="ped222" depart="777.00" type="ped_pedestrian">
        <walk from="634644489" to="578934718#0"/>
    </person>
    <person id="ped223" depart="780.50" type="ped_pedestrian">
        <walk from="578942362" to="578605861#0"/>
    </person>
    <person id="ped224" depart="784.00" type="ped_pedestrian">
        <walk from="5955850#0" to="578934692"/>
    </person>
    <person id="ped225" depart="787.50" type="ped_pedestrian">
        <walk from="641705063#0" to="578942367#1"/>
    </person>
    <person id="ped226" depart="791.00" type="ped_pedestrian">
        <walk from="436291021#0" to="-593766960"/>
    </person>
    <person id="ped227" depart="794.50" type="ped_pedestrian">
        <walk from="-578942372#1" to="578934723"/>
    </person>
    <person id="ped228" depart="798.00" type="ped_pedestrian">
        <walk from="578942369#0" to="578605862#2"/>
    </person>
    <person id="ped229" depart="801.50" type="ped_pedestrian">
        <walk from="578934719" to="-5955850#0"/>
    </person>
    <person id="ped230" depart="805.00" type="ped_pedestrian">
        <walk from="-578934691#1" to="-5955850#2"/>
    </person>
    <person id="ped231" depart="808.50" type="ped_pedestrian">