<?xml version="1.0" encoding="UTF-8"?>
<additional>
    <tlLogic id="intersection/0002/tls" type="static" programID="a" offset="0">
        <phase duration="5" state="rrrrrrrGGrrrr"/>
        <phase duration="3" state="rrrrrrryyrrrr"/>
        <phase duration="2" state="rrrrrrrrrrrrr"/>
        <phase duration="5" state="GGrrrrrGrrrrr"/>
        <phase duration="3" state="yyrrrrryrrrrr"/>
        <phase duration="2" state="rrrrrrrrrrrrr"/>
        <phase duration="4" state="rrGGGGGrrrrrr"/>
        <phase duration="3" state="rryyyyyrrrrrr"/>
        <phase duration="2" state="rrrrrrrrrrrrr"/>
    </tlLogic>
    <tlLogic id="intersection/0003/tls" type="static" programID="a" offset="0">
        <phase duration="4" state="GGrrrrrrrrrr"/>
        <phase duration="3" state="Gyrrrrrrrrrr"/>
        <phase duration="4" state="Grrrrrrrrrrr"/>
        <phase duration="10" state="GrGGrrrrrrrr"/>
        <phase duration="3" state="yryyrrrrrrrr"/>
        <phase duration="2" state="rrrrrrrrrrrr"/>
        <phase duration="4" state="rrrrGGGGrrrr"/>
        <phase duration="3" state="rrrryyyyrrrr"/>
        <phase duration="2" state="rrrrrrrrrrrr"/>
    </tlLogic>
    <tlLogic id="intersection/0004/tls" type="static" programID="a" offset="0">
        <phase duration="7" state="GGGGrrrrr"/>
        <phase duration="3" state="yyyyrrrrr"/>
        <phase duration="2" state="rrrrrrrrr"/>
        <phase duration="5" state="rrrrGGGrr"/>
        <phase duration="3" state="rrrryyyrr"/>
        <phase duration="2" state="rrrrrrrrr"/>
    </tlLogic>
    <tlLogic id="intersection/0005/tls" type="static" programID="a" offset="0">
        <phase duration="7" state="GGGGGrrrrrrr"/>
        <phase duration="3" state="yyyyyrrrrrrr"/>
        <phase duration="2" state="rrrrrrrrrrrr"/>
        <phase duration="5" state="rrrrrGGGGGrr"/>
        <phase duration="3" state="rrrrryyyyyrr"/>
        <phase duration="2" state="rrrrrrrrrrrr"/>
    </tlLogic>
    <tlLogic id="intersection/0006/tls" type="static" programID="a" offset="0">
        <phase duration="5" state="rrGGGGrrrrrr"/>
        <phase duration="3" state="rryyyyrrrrrr"/>
        <phase duration="2" state="rrrrrrrrrrrr"/>
        <phase duration="4" state="rrrrrrGGrrrr"/>
        <phase duration="3" state="rrrrrrGyrrrr"/>
        <phase duration="4" state="rrrrrrGrrrrr"/>
        <phase duration="6" state="GGrrrrGrrrrr"/>
        <phase duration="3" state="yyrrrryrrrrr"/>
        <phase duration="2" state="rrrrrrrrrrrr"/>
    </tlLogic>
    <tlLogic id="intersection/0007/tls" type="static" programID="a" offset="0">
        <phase duration="5" state="GGGrrrr"/>
        <phase duration="3" state="yyyrrrr"/>
        <phase duration="2" state="rrrrrrr"/>
        <phase duration="7" state="rrrGGrr"/>
        <phase duration="3" state="rrryyrr"/>
        <phase duration="2" state="rrrrrrr"/>
    </tlLogic>
    <tlLogic id="intersection/0008/tls" type="static" programID="a" offset="0">
        <phase duration="5" state="GGGrrrrrr"/>
        <phase duration="3" state="yyyrrrrrr"/>
        <phase duration="2" state="rrrrrrrrr"/>
        <phase duration="7" state="rrrGGGGrr"/>
        <phase duration="3" state="rrryyyyrr"/>
        <phase duration="2" state="rrrrrrrrr"/>
    </tlLogic>
    <tlLogic id="intersection/0009/tls" type="static" programID="a" offset="0">
        <phase duration="10" state="rrrrrGGGrr"/>
        <phase duration="3" state="rrrrryyyrr"/>
        <phase duration="2" state="rrrrrrrrrr"/>
        <phase duration="4" state="GGGGGrrrrr"/>
        <phase duration="3" state="yyyyyrrrrr"/>
        <phase duration="2" state="rrrrrrrrrr"/>
    </tlLogic>
    <tlLogic id="intersection/0010/tls" type="static" programID="a" offset="0">
        <phase duration="6" state="rGGGrrr"/>
        <phase duration="3" state="ryyyrrr"/>
        <phase duration="2" state="rrrrrrr"/>
        <phase duration="6" state="Grrrrrr"/>
        <phase duration="3" state="yrrrrrr"/>
        <phase duration="2" state="rrrrrrr"/>
    </tlLogic>
    <tlLogic id="intersection/0011/tls" type="static" programID="a" offset="0">
        <phase duration="9" state="rrGGGGrr"/>
        <phase duration="3" state="rryyyyrr"/>
        <phase duration="2" state="rrrrrrrr"/>
        <phase duration="4" state="GGrrrrrr"/>
        <phase duration="3" state="yyrrrrrr"/>
        <phase duration="2" state="rrrrrrrr"/>
    </tlLogic>
    <tlLogic id="intersection/0012/tls" type="static" programID="a" offset="0">
        <phase duration="9" state="GGGrrrrrr"/>
        <phase duration="3" state="yyyrrrrrr"/>
        <phase duration="2" state="rrrrrrrrr"/>
        <phase duration="4" state="rrrGGGGrr"/>
        <phase duration="3" state="rrryyyyrr"/>
        <phase duration="2" state="rrrrrrrrr"/>
    </tlLogic>
</additional>
