<?xml version="1.0" encoding="UTF-8"?>

<!-- generated on jue 05 dic 2019 11:13:23 -03 by Eclipse SUMO netedit Version 1.3.1
<configuration xmlns:xsi="http://www.w3.org/2001/XMLSchema-instance" xsi:noNamespaceSchemaLocation="http://sumo.dlr.de/xsd/netconvertConfiguration.xsd">

    <input>
        <sumo-net-file value="osm.net.xml"/>
    </input>

    <output>
        <output-file value="/home/pandora/Desktop/Jose_Proyecto/ProyectoTesis/Simulación/SUMO/SanDiego/SUMO_SanDiego_Pilot1/MicroDescongest/osm/osm.net.xml"/>
    </output>

    <processing>
        <geometry.max-grade.fix value="false"/>
        <offset.disable-normalization value="true"/>
        <opposites.guess.fix-lengths value="true"/>
        <lefthand value="false"/>
    </processing>

    <junctions>
        <no-turnarounds value="true"/>
        <junctions.corner-detail value="5"/>
        <junctions.limit-turn-speed value="5.5"/>
        <rectangular-lane-cut value="false"/>
    </junctions>

    <pedestrian>
        <walkingareas value="false"/>
    </pedestrian>

</configuration>
-->

<additional xmlns:xsi="http://www.w3.org/2001/XMLSchema-instance" xsi:noNamespaceSchemaLocation="http://sumo.dlr.de/xsd/additional_file.xsd">
    <tlLogic id="intersection/0002/tls" type="static" programID="1" offset="0">
        <phase duration="15" state="rrrrrrrGGrrrr"/>
        <phase duration="3"  state="rrrrrrryyrrrr"/>
        <phase duration="2"  state="rrrrrrrrrrrrr"/>
        <phase duration="15" state="GGrrrrrGrrrrr"/>
        <phase duration="3"  state="yyrrrrryrrrrr"/>
        <phase duration="2"  state="rrrrrrrrrrrrr"/>
        <phase duration="15" state="rrGGGGGrrrrrr"/>
        <phase duration="3"  state="rryyyyyrrrrrr"/>
        <phase duration="2"  state="rrrrrrrrrrrrr"/>
    </tlLogic>
    <tlLogic id="intersection/0003/tls" type="static" programID="1" offset="0">
        <phase duration="15" state="GGrrrrrrrrrr"/>
        <phase duration="3"  state="Gyrrrrrrrrrr"/>
        <phase duration="2"  state="Grrrrrrrrrrr"/>
        <phase duration="15" state="GrGGrrrrrrrr"/>
        <phase duration="3"  state="yryyrrrrrrrr"/>
        <phase duration="2"  state="rrrrrrrrrrrr"/>
        <phase duration="15" state="rrrrGGGGrrrr"/>
        <phase duration="3"  state="rrrryyyyrrrr"/>
        <phase duration="2"  state="rrrrrrrrrrrr"/>
    </tlLogic>
    <tlLogic id="intersection/0004/tls" type="static" programID="1" offset="0">
        <phase duration="15" state="GGGGrrrrr"/>
        <phase duration="3"  state="yyyyrrrrr"/>
        <phase duration="2"  state="rrrrrrrrr"/>
        <phase duration="15" state="rrrrGGGrr"/>
        <phase duration="3"  state="rrrryyyrr"/>
        <phase duration="2"  state="rrrrrrrrr"/>
    </tlLogic>
    <tlLogic id="intersection/0005/tls" type="static" programID="1" offset="0">
        <phase duration="15" state="GGGGGrrrrrrr"/>
        <phase duration="3"  state="yyyyyrrrrrrr"/>
        <phase duration="2"  state="rrrrrrrrrrrr"/>
        <phase duration="15" state="rrrrrGGGGGrr"/>
        <phase duration="3"  state="rrrrryyyyyrr"/>
        <phase duration="2"  state="rrrrrrrrrrrr"/>
    </tlLogic>
    <tlLogic id="intersection/0006/tls" type="static" programID="1" offset="0">
        <phase duration="15" state="rrGGGGrrrrrr"/>
        <phase duration="3"  state="rryyyyrrrrrr"/>
        <phase duration="2"  state="rrrrrrrrrrrr"/>
        <phase duration="15" state="rrrrrrGGrrrr"/>
        <phase duration="3"  state="rrrrrrGyrrrr"/>
        <phase duration="2"  state="rrrrrrGrrrrr"/>
        <phase duration="15" state="GGrrrrGrrrrr"/>
        <phase duration="3"  state="yyrrrryrrrrr"/>
        <phase duration="2"  state="rrrrrrrrrrrr"/>
    </tlLogic>
    <tlLogic id="intersection/0007/tls" type="static" programID="1" offset="0">
        <phase duration="15" state="GGGrrrr"/>
        <phase duration="3"  state="yyyrrrr"/>
        <phase duration="2"  state="rrrrrrr"/>
        <phase duration="15" state="rrrGGrr"/>
        <phase duration="3"  state="rrryyrr"/>
        <phase duration="2"  state="rrrrrrr"/>
    </tlLogic>
    <tlLogic id="intersection/0008/tls" type="static" programID="1" offset="0">
        <phase duration="15" state="GGGrrrrrr"/>
        <phase duration="3"  state="yyyrrrrrr"/>
        <phase duration="2"  state="rrrrrrrrr"/>
        <phase duration="15" state="rrrGGGGrr"/>
        <phase duration="3"  state="rrryyyyrr"/>
        <phase duration="2"  state="rrrrrrrrr"/>
    </tlLogic>
    <tlLogic id="intersection/0009/tls" type="static" programID="1" offset="0">
        <phase duration="15" state="rrrrrGGGrr"/>
        <phase duration="3"  state="rrrrryyyrr"/>
        <phase duration="2"  state="rrrrrrrrrr"/>
        <phase duration="15" state="GGGGGrrrrr"/>
        <phase duration="3"  state="yyyyyrrrrr"/>
        <phase duration="2"  state="rrrrrrrrrr"/>
    </tlLogic>
    <tlLogic id="intersection/0010/tls" type="static" programID="1" offset="0">
        <phase duration="15" state="rGGGrrr"/>
        <phase duration="3"  state="ryyyrrr"/>
        <phase duration="2"  state="rrrrrrr"/>
        <phase duration="15" state="Grrrrrr"/>
        <phase duration="3"  state="yrrrrrr"/>
        <phase duration="2"  state="rrrrrrr"/>
    </tlLogic>
    <tlLogic id="intersection/0011/tls" type="static" programID="1" offset="0">
        <phase duration="15" state="rrGGGGrr"/>
        <phase duration="3"  state="rryyyyrr"/>
        <phase duration="2"  state="rrrrrrrr"/>
        <phase duration="15" state="GGrrrrrr"/>
        <phase duration="3"  state="yyrrrrrr"/>
        <phase duration="2"  state="rrrrrrrr"/>
    </tlLogic>
    <tlLogic id="intersection/0012/tls" type="static" programID="1" offset="0">
        <phase duration="15" state="GGGrrrrrr"/>
        <phase duration="3"  state="yyyrrrrrr"/>
        <phase duration="2"  state="rrrrrrrrr"/>
        <phase duration="15" state="rrrGGGGrr"/>
        <phase duration="3"  state="rrryyyyrr"/>
        <phase duration="2"  state="rrrrrrrrr"/>
    </tlLogic>
</additional>
