<additional>
    <tlLogic id="intersection/0002/tls" programID="0" offset="-11.76"/>
    <tlLogic id="intersection/0003/tls" programID="0" offset="-44.18"/>
    <tlLogic id="intersection/0004/tls" programID="0" offset="9.83"/>
    <tlLogic id="intersection/0005/tls" programID="0" offset="4.67"/>
    <tlLogic id="intersection/0006/tls" programID="0" offset="0.00"/>
    <tlLogic id="intersection/0007/tls" programID="0" offset="-5.71"/>
    <tlLogic id="intersection/0008/tls" programID="0" offset="-36.03"/>
    <tlLogic id="intersection/0009/tls" programID="0" offset="-96.06"/>
    <tlLogic id="intersection/0010/tls" programID="0" offset="-90.31"/>
    <tlLogic id="intersection/0011/tls" programID="0" offset="-83.83"/>
    <tlLogic id="intersection/0012/tls" programID="0" offset="-77.88"/>
</additional>
