<additional xmlns:xsi="http://www.w3.org/2001/XMLSchema-instance" xsi:noNamespaceSchemaLocation="http://sumo.dlr.de/xsd/additional_file.xsd">
    <laneAreaDetector file="e2output.xml" freq="1" friendlyPos="x" id="e2det_-184708333_0" lane="-184708333_0" length="20" pos="12.350000000000003"/>
    <laneAreaDetector file="e2output.xml" freq="1" friendlyPos="x" id="e2det_184708334_0" lane="184708334_0" length="20" pos="19.04"/>
    <laneAreaDetector file="e2output.xml" freq="1" friendlyPos="x" id="e2det_184708338_0" lane="184708338_0" length="20" pos="31.32"/>
    <laneAreaDetector file="e2output.xml" freq="1" friendlyPos="x" id="e2det_234953562_1" lane="234953562_1" length="20" pos="24.17"/>
    <laneAreaDetector file="e2output.xml" freq="1" friendlyPos="x" id="e2det_234953562_2" lane="234953562_2" length="20" pos="24.17"/>
    <laneAreaDetector file="e2output.xml" freq="1" friendlyPos="x" id="e2det_641705065_1" lane="641705065_1" length="20" pos="88.10000000000001"/>
    <laneAreaDetector file="e2output.xml" freq="1" friendlyPos="x" id="e2det_-593766960_1" lane="-593766960_1" length="20" pos="17.86"/>
    <laneAreaDetector file="e2output.xml" freq="1" friendlyPos="x" id="e2det_436291021#0_1" lane="436291021#0_1" length="20" pos="132.98000000000002"/>
    <laneAreaDetector file="e2output.xml" freq="1" friendlyPos="x" id="e2det_436291021#0_2" lane="436291021#0_2" length="20" pos="132.98000000000002"/>
    <laneAreaDetector file="e2output.xml" freq="1" friendlyPos="x" id="e2det_593766963_1" lane="593766963_1" length="7.390000000000001" pos="0"/>
    <laneAreaDetector file="e2output.xml" freq="1" friendlyPos="x" id="e2det_-5955850#0_1" lane="-5955850#0_1" length="20" pos="53.46"/>
    <laneAreaDetector file="e2output.xml" freq="1" friendlyPos="x" id="e2det_-5962129#0_1" lane="-5962129#0_1" length="20" pos="10.63"/>
    <laneAreaDetector file="e2output.xml" freq="1" friendlyPos="x" id="e2det_436291016#3_1" lane="436291016#3_1" length="20" pos="3.3299999999999996"/>
    <laneAreaDetector file="e2output.xml" freq="1" friendlyPos="x" id="e2det_436291016#3_2" lane="436291016#3_2" length="20" pos="3.3299999999999996"/>
    <laneAreaDetector file="e2output.xml" freq="1" friendlyPos="x" id="e2det_436291016#3_3" lane="436291016#3_3" length="20" pos="3.3299999999999996"/>
    <laneAreaDetector file="e2output.xml" freq="1" friendlyPos="x" id="e2det_-641705065_1" lane="-641705065_1" length="20" pos="88.10000000000001"/>
    <laneAreaDetector file="e2output.xml" freq="1" friendlyPos="x" id="e2det_419814433#4_1" lane="419814433#4_1" length="20" pos="15.350000000000003"/>
    <laneAreaDetector file="e2output.xml" freq="1" friendlyPos="x" id="e2det_641705063#3_1" lane="641705063#3_1" length="20" pos="2.770000000000001"/>
    <laneAreaDetector file="e2output.xml" freq="1" friendlyPos="x" id="e2det_641705063#3_2" lane="641705063#3_2" length="20" pos="2.770000000000001"/>
    <laneAreaDetector file="e2output.xml" freq="1" friendlyPos="x" id="e2det_-89927838#0_1" lane="-89927838#0_1" length="20" pos="31.129999999999995"/>
    <laneAreaDetector file="e2output.xml" freq="1" friendlyPos="x" id="e2det_278328405#0_1" lane="278328405#0_1" length="20" pos="45.949999999999996"/>
    <laneAreaDetector file="e2output.xml" freq="1" friendlyPos="x" id="e2det_278328405#0_2" lane="278328405#0_2" length="20" pos="45.949999999999996"/>
    <laneAreaDetector file="e2output.xml" freq="1" friendlyPos="x" id="e2det_436291019_1" lane="436291019_1" length="20" pos="4.049999999999999"/>
    <laneAreaDetector file="e2output.xml" freq="1" friendlyPos="x" id="e2det_436291019_2" lane="436291019_2" length="20" pos="4.049999999999999"/>
    <laneAreaDetector file="e2output.xml" freq="1" friendlyPos="x" id="e2det_436291019_4" lane="436291019_4" length="20" pos="4.049999999999999"/>
    <laneAreaDetector file="e2output.xml" freq="1" friendlyPos="x" id="e2det_36054466#4_1" lane="36054466#4_1" length="20" pos="9.38"/>
    <laneAreaDetector file="e2output.xml" freq="1" friendlyPos="x" id="e2det_641705063#1_1" lane="641705063#1_1" length="20" pos="20.909999999999997"/>
    <laneAreaDetector file="e2output.xml" freq="1" friendlyPos="x" id="e2det_641705063#1_2" lane="641705063#1_2" length="20" pos="20.909999999999997"/>
    <laneAreaDetector file="e2output.xml" freq="1" friendlyPos="x" id="e2det_436291010_1" lane="436291010_1" length="20" pos="10.87"/>
    <laneAreaDetector file="e2output.xml" freq="1" friendlyPos="x" id="e2det_436291010_2" lane="436291010_2" length="20" pos="10.87"/>
    <laneAreaDetector file="e2output.xml" freq="1" friendlyPos="x" id="e2det_436291010_3" lane="436291010_3" length="20" pos="10.87"/>
    <laneAreaDetector file="e2output.xml" freq="1" friendlyPos="x" id="e2det_436291010_4" lane="436291010_4" length="20" pos="10.87"/>
    <laneAreaDetector file="e2output.xml" freq="1" friendlyPos="x" id="e2det_436291031_1" lane="436291031_1" length="20" pos="7.299999999999999"/>
    <laneAreaDetector file="e2output.xml" freq="1" friendlyPos="x" id="e2det_436291031_2" lane="436291031_2" length="20" pos="7.299999999999999"/>
    <laneAreaDetector file="e2output.xml" freq="1" friendlyPos="x" id="e2det_436291013_1" lane="436291013_1" length="8.94" pos="0"/>
    <laneAreaDetector file="e2output.xml" freq="1" friendlyPos="x" id="e2det_436291013_2" lane="436291013_2" length="8.94" pos="0"/>
    <laneAreaDetector file="e2output.xml" freq="1" friendlyPos="x" id="e2det_436291013_3" lane="436291013_3" length="8.94" pos="0"/>
    <laneAreaDetector file="e2output.xml" freq="1" friendlyPos="x" id="e2det_642337373_1" lane="642337373_1" length="20" pos="51.52"/>
    <laneAreaDetector file="e2output.xml" freq="1" friendlyPos="x" id="e2det_642337373_2" lane="642337373_2" length="20" pos="51.52"/>
    <laneAreaDetector file="e2output.xml" freq="1" friendlyPos="x" id="e2det_436291018_1" lane="436291018_1" length="14.0" pos="0"/>
    <laneAreaDetector file="e2output.xml" freq="1" friendlyPos="x" id="e2det_436291018_2" lane="436291018_2" length="14.0" pos="0"/>
    <laneAreaDetector file="e2output.xml" freq="1" friendlyPos="x" id="e2det_89922370#5_1" lane="89922370#5_1" length="20" pos="14.710000000000003"/>
    <laneAreaDetector file="e2output.xml" freq="1" friendlyPos="x" id="e2det_89922370#5_2" lane="89922370#5_2" length="20" pos="14.710000000000003"/>
    <laneAreaDetector file="e2output.xml" freq="1" friendlyPos="x" id="e2det_436291064#1_1" lane="436291064#1_1" length="20" pos="15.839999999999998"/>
    <laneAreaDetector file="e2output.xml" freq="1" friendlyPos="x" id="e2det_436291064#1_2" lane="436291064#1_2" length="20" pos="15.839999999999998"/>
    <laneAreaDetector file="e2output.xml" freq="1" friendlyPos="x" id="e2det_436291064#1_4" lane="436291064#1_4" length="20" pos="15.839999999999998"/>
    <laneAreaDetector file="e2output.xml" freq="1" friendlyPos="x" id="e2det_6024091#5_1" lane="6024091#5_1" length="20" pos="12.33"/>
    <laneAreaDetector file="e2output.xml" freq="1" friendlyPos="x" id="e2det_6024091#5_2" lane="6024091#5_2" length="20" pos="12.33"/>
    <laneAreaDetector file="e2output.xml" freq="1" friendlyPos="x" id="e2det_573865733#0_1" lane="573865733#0_1" length="20" pos="88.99000000000001"/>
    <laneAreaDetector file="e2output.xml" freq="1" friendlyPos="x" id="e2det_573865733#0_2" lane="573865733#0_2" length="20" pos="88.99000000000001"/>
    <laneAreaDetector file="e2output.xml" freq="1" friendlyPos="x" id="e2det_573865733#0_3" lane="573865733#0_3" length="20" pos="88.99000000000001"/>
    <laneAreaDetector file="e2output.xml" freq="1" friendlyPos="x" id="e2det_634644489_1" lane="634644489_1" length="20" pos="49.88999999999999"/>
    <laneAreaDetector file="e2output.xml" freq="1" friendlyPos="x" id="e2det_634644489_2" lane="634644489_2" length="20" pos="49.88999999999999"/>
    <laneAreaDetector file="e2output.xml" freq="1" friendlyPos="x" id="e2det_89927838#3_1" lane="89927838#3_1" length="20" pos="18.1"/>
</additional>
