<?xml version="1.0" encoding="UTF-8"?>

<!-- generated on Wed Aug  7 15:30:37 2019 by Eclipse SUMO duarouter Version 1.2.0
<configuration xmlns:xsi="http://www.w3.org/2001/XMLSchema-instance" xsi:noNamespaceSchemaLocation="http://sumo.dlr.de/xsd/duarouterConfiguration.xsd">

    <input>
        <net-file value="osm.net.xml"/>
        <route-files value="osm.motorcycle.trips.xml"/>
    </input>

    <output>
        <output-file value="osm.motorcycle.trips.xml.tmp"/>
        <write-trips value="true"/>
    </output>

    <time>
        <begin value="0"/>
        <end value="3600.0"/>
    </time>

    <report>
        <no-warnings value="true"/>
        <ignore-errors value="true"/>
        <no-step-log value="true"/>
    </report>

</configuration>
-->

<routes xmlns:xsi="http://www.w3.org/2001/XMLSchema-instance" xsi:noNamespaceSchemaLocation="http://sumo.dlr.de/xsd/routes_file.xsd">
    <vType id="moto_motorcycle" vClass="motorcycle"/>
    <trip id="moto0" type="moto_motorcycle" depart="0.00" departLane="best" from="593766961" to="-419814433#1"/>
    <trip id="moto1" type="moto_motorcycle" depart="8.47" departLane="best" from="36054466#5" to="36054466#0"/>
    <trip id="moto2" type="moto_motorcycle" depart="16.94" departLane="best" from="5962129#5" to="5955850#0"/>
    <trip id="moto4" type="moto_motorcycle" depart="33.88" departLane="best" from="436291016#2" to="-419814433#2"/>
    <trip id="moto6" type="moto_motorcycle" depart="50.82" departLane="best" from="-419814433#4" to="234953562"/>
    <trip id="moto7" type="moto_motorcycle" depart="59.30" departLane="best" from="593766963" to="436291020#2"/>
    <trip id="moto9" type="moto_motorcycle" depart="76.24" departLane="best" from="641705063#0" to="-419814433#0"/>
    <trip id="moto10" type="moto_motorcycle" depart="84.71" departLane="best" from="641705063#0" to="5955850#2"/>
    <trip id="moto11" type="moto_motorcycle" depart="93.18" departLane="best" from="419814433#1" to="-5962129#5"/>
    <trip id="moto12" type="moto_motorcycle" depart="101.65" departLane="best" departSpeed="max" from="89922370#0" to="419814433#1"/>
    <trip id="moto15" type="moto_motorcycle" depart="127.06" departLane="best" from="641705063#0" to="5962129#1"/>
    <trip id="moto16" type="moto_motorcycle" depart="135.53" departLane="best" from="436291020#2" to="642751754#1"/>
    <trip id="moto17" type="moto_motorcycle" depart="144.00" departLane="best" from="436291011" to="436291029"/>
    <trip id="moto18" type="moto_motorcycle" depart="152.47" departLane="best" from="641705063#2" to="593766960"/>
    <trip id="moto19" type="moto_motorcycle" depart="160.95" departLane="best" from="641705065" to="436291062"/>
    <trip id="moto20" type="moto_motorcycle" depart="169.42" departLane="best" from="5962129#1" to="-419814433#4"/>
    <trip id="moto21" type="moto_motorcycle" depart="177.89" departLane="best" from="36054466#0" to="36054466#5"/>
    <trip id="moto22" type="moto_motorcycle" depart="186.36" departLane="best" from="-593766965" to="36054466#1"/>
    <trip id="moto23" type="moto_motorcycle" depart="194.83" departLane="best" from="-5955850#1" to="36054466#4"/>
    <trip id="moto24" type="moto_motorcycle" depart="203.30" departLane="best" from="593766961" to="436291010"/>
    <trip id="moto25" type="moto_motorcycle" depart="211.77" departLane="best" from="436291010" to="278328405#0"/>
    <trip id="moto26" type="moto_motorcycle" depart="220.24" departLane="best" from="36054466#4" to="642361032"/>
    <trip id="moto28" type="moto_motorcycle" depart="237.18" departLane="best" from="-5962129#5" to="5962129#1"/>
    <trip id="moto29" type="moto_motorcycle" depart="245.65" departLane="best" from="-5962129#4" to="436291011"/>
    <trip id="moto30" type="moto_motorcycle" depart="254.12" departLane="best" departSpeed="max" from="89927838#0" to="593766962#0"/>
    <trip id="moto31" type="moto_motorcycle" depart="262.59" departLane="best" from="436291031" to="5955850#0"/>
    <trip id="moto32" type="moto_motorcycle" depart="271.07" departLane="best" from="641705064#0" to="6024091#2"/>
    <trip id="moto33" type="moto_motorcycle" depart="279.54" departLane="best" from="36054466#0" to="-419814433#2"/>
    <trip id="moto34" type="moto_motorcycle" depart="288.01" departLane="best" from="36054466#9" to="36054466#2"/>
    <trip id="moto37" type="moto_motorcycle" depart="313.42" departLane="best" from="593766964" to="436291016#0"/>
    <trip id="moto38" type="moto_motorcycle" depart="321.89" departLane="best" departSpeed="max" from="642337374#0" to="436291016#5"/>
    <trip id="moto39" type="moto_motorcycle" depart="330.36" departLane="best" from="36054466#4" to="36054466#10"/>
    <trip id="moto40" type="moto_motorcycle" depart="338.83" departLane="best" from="436291031" to="36054466#2"/>
    <trip id="moto41" type="moto_motorcycle" depart="347.30" departLane="best" from="436291064#0" to="641705146#2"/>
    <trip id="moto42" type="moto_motorcycle" depart="355.77" departLane="best" from="436291016#0" to="278328405#1"/>
    <trip id="moto43" type="moto_motorcycle" depart="364.24" departLane="best" from="89927838#3" to="436291019"/>
    <trip id="moto44" type="moto_motorcycle" depart="372.72" departLane="best" from="-5955850#0" to="-593766960"/>
    <trip id="moto45" type="moto_motorcycle" depart="381.19" departLane="best" departSpeed="max" from="-5955850#2" to="593766961"/>
    <trip id="moto46" type="moto_motorcycle" depart="389.66" departLane="best" from="6024091#5" to="436291016#10"/>
    <trip id="moto48" type="moto_motorcycle" depart="406.60" departLane="best" from="89927838#3" to="436291020#1"/>
    <trip id="moto49" type="moto_motorcycle" depart="415.07" departLane="best" from="89922370#5" to="641705064#1"/>
    <trip id="moto50" type="moto_motorcycle" depart="423.54" departLane="best" from="-419814433#2" to="5962129#0"/>
    <trip id="moto52" type="moto_motorcycle" depart="440.48" departLane="best" from="36054466#4" to="593766962#0"/>
    <trip id="moto53" type="moto_motorcycle" depart="448.95" departLane="best" departSpeed="max" from="-5955850#2" to="436291016#2"/>
    <trip id="moto57" type="moto_motorcycle" depart="482.84" departLane="best" departSpeed="max" from="642337374#0" to="641705146#0"/>
    <trip id="moto58" type="moto_motorcycle" depart="491.31" departLane="best" from="36054466#7" to="593766962#0"/>
    <trip id="moto59" type="moto_motorcycle" depart="499.78" departLane="best" departSpeed="max" from="573865733#0" to="-5962129#5"/>
    <trip id="moto60" type="moto_motorcycle" depart="508.25" departLane="best" departSpeed="max" from="6024091#0" to="436291020#2"/>
    <trip id="moto61" type="moto_motorcycle" depart="516.72" departLane="best" from="6024091#3" to="436291020#1"/>
    <trip id="moto62" type="moto_motorcycle" depart="525.19" departLane="best" from="-419814433#1" to="36054466#9"/>
    <trip id="moto65" type="moto_motorcycle" depart="550.60" departLane="best" from="36054466#8" to="-593766963"/>
    <trip id="moto67" type="moto_motorcycle" depart="567.54" departLane="best" from="-5955850#0" to="436291016#8"/>
    <trip id="moto68" type="moto_motorcycle" depart="576.01" departLane="best" from="-593766964" to="5962129#5"/>
    <trip id="moto69" type="moto_motorcycle" depart="584.49" departLane="best" from="6024091#2" to="-5962129#2"/>
    <trip id="moto71" type="moto_motorcycle" depart="601.43" departLane="best" from="36054466#4" to="641705146#0"/>
    <trip id="moto72" type="moto_motorcycle" depart="609.90" departLane="best" from="436291016#2" to="278328405#0"/>
    <trip id="moto73" type="moto_motorcycle" depart="618.37" departLane="best" departSpeed="max" from="436291021#0" to="5962129#1"/>
    <trip id="moto74" type="moto_motorcycle" depart="626.84" departLane="best" from="234953562" to="36054466#7"/>
    <trip id="moto75" type="moto_motorcycle" depart="635.31" departLane="best" from="89927838#3" to="593766963"/>
    <trip id="moto77" type="moto_motorcycle" depart="652.25" departLane="best" departSpeed="max" from="-5955850#2" to="36054466#0"/>
    <trip id="moto78" type="moto_motorcycle" depart="660.72" departLane="best" departSpeed="max" from="419814433#0" to="436291064#0"/>
    <trip id="moto79" type="moto_motorcycle" depart="669.19" departLane="best" from="36054466#0" to="278328405#1"/>
    <trip id="moto80" type="moto_motorcycle" depart="677.66" departLane="best" from="-593766964" to="593766962#0"/>
    <trip id="moto81" type="moto_motorcycle" depart="686.13" departLane="best" from="36054466#0" to="641705146#2"/>
    <trip id="moto82" type="moto_motorcycle" depart="694.61" departLane="best" from="641705065" to="-593766964"/>
    <trip id="moto83" type="moto_motorcycle" depart="703.08" departLane="best" from="36054466#1" to="593766965"/>
    <trip id="moto87" type="moto_motorcycle" depart="736.96" departLane="best" from="641705063#0" to="-89927838#3"/>
    <trip id="moto88" type="moto_motorcycle" depart="745.43" departLane="best" from="-5955850#1" to="436291016#2"/>
    <trip id="moto89" type="moto_motorcycle" depart="753.90" departLane="best" from="436291016#2" to="436291016#6"/>
    <trip id="moto90" type="moto_motorcycle" depart="762.37" departLane="best" from="5962129#4" to="593766965"/>
    <trip id="moto92" type="moto_motorcycle" depart="779.31" departLane="best" from="436291016#0" to="419814433#1"/>
    <trip id="moto93" type="moto_motorcycle" depart="787.78" departLane="best" from="641705065" to="36054466#10"/>
    <trip id="moto94" type="moto_motorcycle" depart="796.26" departLane="best" from="-89927838#3" to="436291016#4"/>
    <trip id="moto95" type="moto_motorcycle" depart="804.73" departLane="best" from="436291016#2" to="36054466#4"/>
    <trip id="moto96" type="moto_motorcycle" depart="813.20" departLane="best" from="36054466#2" to="642337373"/>
    <trip id="moto98" type="moto_motorcycle" depart="830.14" departLane="best" departSpeed="max" from="436291021#0" to="-593766960"/>
    <trip id="moto99" type="moto_motorcycle" depart="838.61" departLane="best" from="89927838#3" to="641705063#3"/>
    <trip id="moto101" type="moto_motorcycle" depart="855.55" departLane="best" from="641705064#0" to="-641705065"/>
    <trip id="moto103" type="moto_motorcycle" depart="872.49" departLane="best" from="436291016#0" to="-593766963"/>
    <trip id="moto105" type="moto_motorcycle" depart="889.43" departLane="best" from="36054466#4" to="6024091#3"/>
    <trip id="moto106" type="moto_motorcycle" depart="897.91" departLane="best" from="436291016#6" to="436291016#10"/>
    <trip id="moto107" type="moto_motorcycle" depart="906.38" departLane="best" departSpeed="max" from="89922370#0" to="89927838#3"/>
    <trip id="moto108" type="moto_motorcycle" depart="914.85" departLane="best" departSpeed="max" from="436291021#0" to="5962129#0"/>
    <trip id="moto109" type="moto_motorcycle" depart="923.32" departLane="best" from="-5962129#3" to="36054466#6"/>
    <trip id="moto110" type="moto_motorcycle" depart="931.79" departLane="best" from="89922370#5" to="436291062"/>
    <trip id="moto111" type="moto_motorcycle" depart="940.26" departLane="best" departSpeed="max" from="436291021#0" to="5962129#3"/>
    <trip id="moto112" type="moto_motorcycle" depart="948.73" departLane="best" from="-593766963" to="436291064#0"/>
    <trip id="moto114" type="moto_motorcycle" depart="965.67" departLane="best" from="-5962129#3" to="642751754#0"/>
    <trip id="moto115" type="moto_motorcycle" depart="974.14" departLane="best" from="-593766965" to="-89927838#3"/>
    <trip id="moto116" type="moto_motorcycle" depart="982.61" departLane="best" departSpeed="max" from="573865733#0" to="593766965"/>
    <trip id="moto117" type="moto_motorcycle" depart="991.08" departLane="best" from="36054466#0" to="-5962129#1"/>
    <trip id="moto118" type="moto_motorcycle" depart="999.55" departLane="best" from="642337372" to="36054466#10"/>
    <trip id="moto119" type="moto_motorcycle" depart="1008.03" departLane="best" departSpeed="max" from="573865733#0" to="593766960"/>
    <trip id="moto120" type="moto_motorcycle" depart="1016.50" departLane="best" from="436291016#2" to="436291064#0"/>
    <trip id="moto122" type="moto_motorcycle" depart="1033.44" departLane="best" from="234953562" to="5962129#0"/>
    <trip id="moto123" type="moto_motorcycle" depart="1041.91" departLane="best" from="36054466#1" to="436291016#0"/>
    <trip id="moto124" type="moto_motorcycle" depart="1050.38" departLane="best" from="5955850#0" to="36054466#6"/>
    <trip id="moto125" type="moto_motorcycle" depart="1058.85" departLane="best" from="36054466#9" to="5962129#4"/>
    <trip id="moto126" type="moto_motorcycle" depart="1067.32" departLane="best" from="-593766964" to="436291016#5"/>
    <trip id="moto127" type="moto_motorcycle" depart="1075.79" departLane="best" from="89927838#3" to="89927838#3"/>
    <trip id="moto128" type="moto_motorcycle" depart="1084.26" departLane="best" from="-593766964" to="278328405#1"/>
    <trip id="moto131" type="moto_motorcycle" depart="1109.68" departLane="best" from="436291010" to="-641705065"/>
    <trip id="moto132" type="moto_motorcycle" depart="1118.15" departLane="best" from="641705063#3" to="5955850#2"/>
    <trip id="moto134" type="moto_motorcycle" depart="1135.09" departLane="best" from="593766964" to="-419814433#0"/>
    <trip id="moto135" type="moto_motorcycle" depart="1143.56" departLane="best" from="641705063#1" to="36054466#6"/>
    <trip id="moto136" type="moto_motorcycle" depart="1152.03" departLane="best" from="593766965" to="642361032"/>
    <trip id="moto137" type="moto_motorcycle" depart="1160.50" departLane="best" from="-5962129#1" to="-5962129#1"/>
    <trip id="moto138" type="moto_motorcycle" depart="1168.97" departLane="best" departSpeed="max" from="-5955850#2" to="436291029"/>
    <trip id="moto140" type="moto_motorcycle" depart="1185.91" departLane="best" from="5962129#3" to="234953562"/>
    <trip id="moto141" type="moto_motorcycle" depart="1194.38" departLane="best" from="593766961" to="36054466#2"/>
    <trip id="moto144" type="moto_motorcycle" depart="1219.80" departLane="best" from="436291016#2" to="36054466#3"/>
    <trip id="moto145" type="moto_motorcycle" depart="1228.27" departLane="best" from="-419814433#1" to="6024091#2"/>
    <trip id="moto146" type="moto_motorcycle" depart="1236.74" departLane="best" from="593766961" to="36054466#2"/>
    <trip id="moto147" type="moto_motorcycle" depart="1245.21" departLane="best" from="5962129#5" to="436291029"/>
    <trip id="moto148" type="moto_motorcycle" depart="1253.68" departLane="best" from="436291016#3" to="-419814433#0"/>
    <trip id="moto149" type="moto_motorcycle" depart="1262.15" departLane="best" from="-593766964" to="641705146#1"/>
    <trip id="moto150" type="moto_motorcycle" depart="1270.62" departLane="best" from="642337373" to="436291020#2"/>
    <trip id="moto151" type="moto_motorcycle" depart="1279.09" departLane="best" from="641705063#3" to="436291062"/>
    <trip id="moto152" type="moto_motorcycle" depart="1287.56" departLane="best" from="-5962129#2" to="-5962129#2"/>
    <trip id="moto153" type="moto_motorcycle" depart="1296.03" departLane="best" from="36054466#8" to="641705146#2"/>
    <trip id="moto154" type="moto_motorcycle" depart="1304.50" departLane="best" from="634644489" to="641705064#1"/>
    <trip id="moto155" type="moto_motorcycle" depart="1312.97" departLane="best" from="642337373" to="278328405#0"/>
    <trip id="moto156" type="moto_motorcycle" depart="1321.45" departLane="best" from="36054466#2" to="-5962129#0"/>
    <trip id="moto157" type="moto_motorcycle" depart="1329.92" departLane="best" from="6024091#3" to="641705146#1"/>
    <trip id="moto158" type="moto_motorcycle" depart="1338.39" departLane="best" from="436291016#1" to="593766961"/>
    <trip id="moto160" type="moto_motorcycle" depart="1355.33" departLane="best" from="641705065" to="642751754#1"/>
    <trip id="moto161" type="moto_motorcycle" depart="1363.80" departLane="best" from="641705063#0" to="641705146#1"/>
    <trip id="moto162" type="moto_motorcycle" depart="1372.27" departLane="best" from="-419814433#4" to="5962129#2"/>
    <trip id="moto164" type="moto_motorcycle" depart="1389.21" departLane="best" from="641705063#0" to="641705065"/>
    <trip id="moto165" type="moto_motorcycle" depart="1397.68" departLane="best" from="641705063#0" to="36054466#2"/>
    <trip id="moto166" type="moto_motorcycle" depart="1406.15" departLane="best" from="6024091#5" to="-5962129#0"/>
    <trip id="moto170" type="moto_motorcycle" depart="1440.04" departLane="best" from="634644489" to="36054466#0"/>
    <trip id="moto171" type="moto_motorcycle" depart="1448.51" departLane="best" from="-419814433#4" to="-89927838#3"/>
    <trip id="moto172" type="moto_motorcycle" depart="1456.98" departLane="best" departSpeed="max" from="419814433#0" to="641705065"/>
    <trip id="moto173" type="moto_motorcycle" depart="1465.45" departLane="best" from="89922370#5" to="36054466#4"/>
    <trip id="moto174" type="moto_motorcycle" depart="1473.92" departLane="best" from="593766961" to="436291016#1"/>
    <trip id="moto175" type="moto_motorcycle" depart="1482.39" departLane="best" departSpeed="max" from="89927838#0" to="436291020#1"/>
    <trip id="moto177" type="moto_motorcycle" depart="1499.33" departLane="best" from="89922370#5" to="-89927838#0"/>
    <trip id="moto178" type="moto_motorcycle" depart="1507.80" departLane="best" from="89922370#5" to="36054466#2"/>
    <trip id="moto179" type="moto_motorcycle" depart="1516.27" departLane="best" departSpeed="max" from="-5955850#2" to="436291016#2"/>
    <trip id="moto180" type="moto_motorcycle" depart="1524.74" departLane="best" from="5962129#4" to="36054466#7"/>
    <trip id="moto181" type="moto_motorcycle" depart="1533.22" departLane="best" departSpeed="max" from="573865733#0" to="436291019"/>
    <trip id="moto182" type="moto_motorcycle" depart="1541.69" departLane="best" from="436291011" to="436291062"/>
    <trip id="moto183" type="moto_motorcycle" depart="1550.16" departLane="best" from="36054466#3" to="5955850#2"/>
    <trip id="moto184" type="moto_motorcycle" depart="1558.63" departLane="best" from="-419814433#1" to="642337373"/>
    <trip id="moto185" type="moto_motorcycle" depart="1567.10" departLane="best" departSpeed="max" from="436291021#0" to="5962129#0"/>
    <trip id="moto186" type="moto_motorcycle" depart="1575.57" departLane="best" from="5962129#5" to="593766965"/>
    <trip id="moto187" type="moto_motorcycle" depart="1584.04" departLane="best" from="419814433#4" to="-593766964"/>
    <trip id="moto188" type="moto_motorcycle" depart="1592.51" departLane="best" from="593766965" to="36054466#9"/>
    <trip id="moto189" type="moto_motorcycle" depart="1600.98" departLane="best" from="36054466#9" to="641705064#0"/>
    <trip id="moto190" type="moto_motorcycle" depart="1609.45" departLane="best" from="5962129#3" to="36054466#6"/>
    <trip id="moto191" type="moto_motorcycle" depart="1617.92" departLane="best" from="36054466#8" to="436291016#10"/>
    <trip id="moto192" type="moto_motorcycle" depart="1626.39" departLane="best" from="436291016#0" to="36054466#5"/>
    <trip id="moto193" type="moto_motorcycle" depart="1634.86" departLane="best" from="-5962129#0" to="436291016#10"/>
    <trip id="moto195" type="moto_motorcycle" depart="1651.81" departLane="best" from="642337373" to="593766960"/>
    <trip id="moto196" type="moto_motorcycle" depart="1660.28" departLane="best" from="36054466#7" to="436291029"/>
    <trip id="moto197" type="moto_motorcycle" depart="1668.75" departLane="best" from="-419814433#1" to="36054466#4"/>
    <trip id="moto198" type="moto_motorcycle" depart="1677.22" departLane="best" from="436291016#3" to="436291062"/>
    <trip id="moto199" type="moto_motorcycle" depart="1685.69" departLane="best" from="593766964" to="436291016#6"/>
    <trip id="moto202" type="moto_motorcycle" depart="1711.10" departLane="best" from="634644489" to="-89927838#0"/>
    <trip id="moto203" type="moto_motorcycle" depart="1719.57" departLane="best" from="-593766965" to="436291019"/>
    <trip id="moto204" type="moto_motorcycle" depart="1728.04" departLane="best" from="593766961" to="419814433#1"/>
    <trip id="moto205" type="moto_motorcycle" depart="1736.51" departLane="best" from="641705063#1" to="5962129#4"/>
    <trip id="moto206" type="moto_motorcycle" depart="1744.99" departLane="best" from="5955850#0" to="36054466#0"/>
    <trip id="moto207" type="moto_motorcycle" depart="1753.46" departLane="best" from="234953562" to="-419814433#1"/>
    <trip id="moto208" type="moto_motorcycle" depart="1761.93" departLane="best" from="36054466#1" to="436291016#7"/>
    <trip id="moto209" type="moto_motorcycle" depart="1770.40" departLane="best" from="641705064#1" to="-593766964"/>
    <trip id="moto210" type="moto_motorcycle" depart="1778.87" departLane="best" from="436291016#1" to="593766962#0"/>
    <trip id="moto211" type="moto_motorcycle" depart="1787.34" departLane="best" from="-89927838#3" to="5955850#2"/>
    <trip id="moto212" type="moto_motorcycle" depart="1795.81" departLane="best" from="436291018" to="36054466#10"/>
    <trip id="moto213" type="moto_motorcycle" depart="1804.28" departLane="best" from="593766964" to="-419814433#0"/>
    <trip id="moto214" type="moto_motorcycle" depart="1812.75" departLane="best" departSpeed="max" from="6024091#0" to="6024091#2"/>
    <trip id="moto215" type="moto_motorcycle" depart="1821.22" departLane="best" departSpeed="max" from="-5955850#2" to="436291016#10"/>
    <trip id="moto216" type="moto_motorcycle" depart="1829.69" departLane="best" from="-5962129#5" to="642751754#0"/>
    <trip id="moto218" type="moto_motorcycle" depart="1846.63" departLane="best" from="36054466#2" to="641705064#0"/>
    <trip id="moto221" type="moto_motorcycle" depart="1872.05" departLane="best" departSpeed="max" from="573865733#0" to="642361032"/>
    <trip id="moto222" type="moto_motorcycle" depart="1880.52" departLane="best" from="642337372" to="593766960"/>
    <trip id="moto223" type="moto_motorcycle" depart="1888.99" departLane="best" from="5962129#3" to="436291018"/>
    <trip id="moto224" type="moto_motorcycle" depart="1897.46" departLane="best" from="641705063#3" to="436291029"/>
    <trip id="moto225" type="moto_motorcycle" depart="1905.93" departLane="best" from="642337373" to="5962129#3"/>
    <trip id="moto227" type="moto_motorcycle" depart="1922.87" departLane="best" from="36054466#2" to="593766962#0"/>
    <trip id="moto228" type="moto_motorcycle" depart="1931.34" departLane="best" from="6024091#2" to="436291020#0"/>
    <trip id="moto229" type="moto_motorcycle" depart="1939.81" departLane="best" from="593766960" to="36054466#3"/>
    <trip id="moto230" type="moto_motorcycle" depart="1948.28" departLane="best" from="-593766965" to="36054466#4"/>
    <trip id="moto231" type="moto_motorcycle" depart="1956.76" departLane="best" from="36054466#4" to="36054466#8"/>
    <trip id="moto232" type="moto_motorcycle" depart="1965.23" departLane="best" departSpeed="max" from="436291021#0" to="-5962129#3"/>
    <trip id="moto233" type="moto_motorcycle" depart="1973.70" departLane="best" from="36054466#0" to="5955850#1"/>
    <trip id="moto234" type="moto_motorcycle" depart="1982.17" departLane="best" from="5962129#1" to="-593766963"/>
    <trip id="moto235" type="moto_motorcycle" depart="1990.64" departLane="best" from="436291016#1" to="436291020#2"/>
    <trip id="moto236" type="moto_motorcycle" depart="1999.11" departLane="best" from="436291016#2" to="278328405#0"/>
    <trip id="moto237" type="moto_motorcycle" depart="2007.58" departLane="best" from="436291016#2" to="641705146#2"/>
    <trip id="moto238" type="moto_motorcycle" depart="2016.05" departLane="best" from="436291064#0" to="5955850#2"/>
    <trip id="moto239" type="moto_motorcycle" depart="2024.52" departLane="best" from="641705064#1" to="5962129#5"/>
    <trip id="moto240" type="moto_motorcycle" depart="2032.99" departLane="best" from="436291011" to="-419814433#0"/>
    <trip id="moto241" type="moto_motorcycle" depart="2041.46" departLane="best" from="419814433#2" to="5962129#4"/>
    <trip id="moto242" type="moto_motorcycle" depart="2049.93" departLane="best" from="641705064#1" to="642361032"/>
    <trip id="moto243" type="moto_motorcycle" depart="2058.40" departLane="best" from="436291016#2" to="5962129#3"/>
    <trip id="moto245" type="moto_motorcycle" depart="2075.35" departLane="best" from="278328405#1" to="278328405#1"/>
    <trip id="moto247" type="moto_motorcycle" depart="2092.29" departLane="best" departSpeed="max" from="419814433#0" to="5955850#0"/>
    <trip id="moto248" type="moto_motorcycle" depart="2100.76" departLane="best" from="436291016#0" to="-641705065"/>
    <trip id="moto250" type="moto_motorcycle" depart="2117.70" departLane="best" from="573865733#1" to="-419814433#1"/>
    <trip id="moto251" type="moto_motorcycle" depart="2126.17" departLane="best" from="436291013" to="436291029"/>
    <trip id="moto252" type="moto_motorcycle" depart="2134.64" departLane="best" from="-419814433#4" to="593766962#0"/>
    <trip id="moto253" type="moto_motorcycle" depart="2143.11" departLane="best" from="-5962129#1" to="436291016#5"/>
    <trip id="moto254" type="moto_motorcycle" depart="2151.58" departLane="best" departSpeed="max" from="-593766962#1" to="436291011"/>
    <trip id="moto256" type="moto_motorcycle" depart="2168.53" departLane="best" departSpeed="max" from="6024091#0" to="436291011"/>
    <trip id="moto257" type="moto_motorcycle" depart="2177.00" departLane="best" departSpeed="max" from="6024091#0" to="641705063#2"/>
    <trip id="moto258" type="moto_motorcycle" depart="2185.47" departLane="best" from="36054466#2" to="-593766965"/>
    <trip id="moto259" type="moto_motorcycle" depart="2193.94" departLane="best" from="-419814433#4" to="436291020#2"/>
    <trip id="moto260" type="moto_motorcycle" depart="2202.41" departLane="best" from="89927838#3" to="419814433#2"/>
    <trip id="moto261" type="moto_motorcycle" depart="2210.88" departLane="best" from="593766963" to="6024091#3"/>
    <trip id="moto262" type="moto_motorcycle" depart="2219.35" departLane="best" from="593766964" to="5962129#4"/>
    <trip id="moto263" type="moto_motorcycle" depart="2227.82" departLane="best" departSpeed="max" from="89922370#0" to="234953562"/>
    <trip id="moto264" type="moto_motorcycle" depart="2236.29" departLane="best" from="-419814433#4" to="-5962129#5"/>
    <trip id="moto265" type="moto_motorcycle" depart="2244.76" departLane="best" from="-5962129#0" to="593766965"/>
    <trip id="moto266" type="moto_motorcycle" depart="2253.23" departLane="best" from="436291031" to="278328405#1"/>
    <trip id="moto267" type="moto_motorcycle" depart="2261.70" departLane="best" from="5962129#1" to="5962129#5"/>
    <trip id="moto269" type="moto_motorcycle" depart="2278.65" departLane="best" departSpeed="max" from="6024091#0" to="-5962129#1"/>
    <trip id="moto270" type="moto_motorcycle" depart="2287.12" departLane="best" from="641705063#1" to="642751754#1"/>
    <trip id="moto271" type="moto_motorcycle" depart="2295.59" departLane="best" departSpeed="max" from="-5955850#2" to="-419814433#1"/>
    <trip id="moto272" type="moto_motorcycle" depart="2304.06" departLane="best" from="36054466#9" to="5955850#0"/>
    <trip id="moto273" type="moto_motorcycle" depart="2312.53" departLane="best" departSpeed="max" from="89922370#0" to="436291016#0"/>
    <trip id="moto274" type="moto_motorcycle" depart="2321.00" departLane="best" from="5962129#2" to="-593766965"/>
    <trip id="moto275" type="moto_motorcycle" depart="2329.47" departLane="best" from="5962129#0" to="593766961"/>
    <trip id="moto276" type="moto_motorcycle" depart="2337.94" departLane="best" from="-5955850#1" to="6024091#2"/>
    <trip id="moto277" type="moto_motorcycle" depart="2346.41" departLane="best" from="641705064#1" to="436291064#1"/>
    <trip id="moto279" type="moto_motorcycle" depart="2363.35" departLane="best" from="6024091#3" to="419814433#2"/>
    <trip id="moto280" type="moto_motorcycle" depart="2371.82" departLane="best" from="436291016#3" to="436291011"/>
    <trip id="moto282" type="moto_motorcycle" depart="2388.77" departLane="best" from="641705064#1" to="641705063#1"/>
    <trip id="moto283" type="moto_motorcycle" depart="2397.24" departLane="best" departSpeed="max" from="-5955850#2" to="642751754#0"/>
    <trip id="moto284" type="moto_motorcycle" depart="2405.71" departLane="best" from="593766961" to="641705063#2"/>
    <trip id="moto285" type="moto_motorcycle" depart="2414.18" departLane="best" from="5962129#1" to="436291016#3"/>
    <trip id="moto286" type="moto_motorcycle" depart="2422.65" departLane="best" from="5962129#4" to="642751754#1"/>
    <trip id="moto287" type="moto_motorcycle" depart="2431.12" departLane="best" from="36054466#4" to="641705063#0"/>
    <trip id="moto288" type="moto_motorcycle" depart="2439.59" departLane="best" departSpeed="max" from="436291021#0" to="436291016#8"/>
    <trip id="moto290" type="moto_motorcycle" depart="2456.53" departLane="best" from="36054466#4" to="641705064#0"/>
    <trip id="moto294" type="moto_motorcycle" depart="2490.42" departLane="best" from="436291011" to="-419814433#2"/>
    <trip id="moto295" type="moto_motorcycle" depart="2498.89" departLane="best" from="641705064#1" to="-89927838#0"/>
    <trip id="moto297" type="moto_motorcycle" depart="2515.83" departLane="best" from="419814433#1" to="641705146#1"/>
    <trip id="moto298" type="moto_motorcycle" depart="2524.30" departLane="best" from="5962129#1" to="36054466#3"/>
    <trip id="moto299" type="moto_motorcycle" depart="2532.77" departLane="best" from="-419814433#2" to="642361032"/>
    <trip id="moto300" type="moto_motorcycle" depart="2541.24" departLane="best" from="-5955850#0" to="5962129#0"/>
    <trip id="moto302" type="moto_motorcycle" depart="2558.18" departLane="best" from="5962129#0" to="593766962#0"/>