<?xml version="1.0" encoding="UTF-8"?>
<!-- generated on 2019-08-07 15:30:35.944417 by $Id$
  options: -n osm.net.xml <doubleminus>seed 42 <doubleminus>fringe-factor 1 -p 2.338304 -o osm.pedestrian.trips.xml -e 3600 -r osm.pedestrian.rou.xml <doubleminus>vehicle-class pedestrian <doubleminus>pedestrians <doubleminus>prefix ped <doubleminus>max-distance 2000
-->
<routes xmlns:xsi="http://www.w3.org/2001/XMLSchema-instance" xsi:noNamespaceSchemaLocation="http://sumo.dlr.de/xsd/routes_file.xsd">
    <vType id="ped_pedestrian" vClass="pedestrian"/>
    <person id="ped0" depart="0.00" type="ped_pedestrian">
        <walk from="578934714" to="-184711458"/>
    </person>
    <person id="ped1" depart="2.34" type="ped_pedestrian">
        <walk from="-5955850#1" to="-578942371#0"/>
    </person>
    <person id="ped2" depart="4.68" type="ped_pedestrian">
        <walk from="578942360#1" to="578934722"/>
    </person>
    <person id="ped3" depart="7.01" type="ped_pedestrian">
        <walk from="6024091#0" to="-578934691#1"/>
    </person>
    <person id="ped4" depart="9.35" type="ped_pedestrian">
        <walk from="36054466#9" to="-184711460"/>
    </person>
    <person id="ped5" depart="11.69" type="ped_pedestrian">
        <walk from="-578942370" to="436291020#0"/>
    </person>
    <person id="ped6" depart="14.03" type="ped_pedestrian">
        <walk from="-184711458" to="-578942364"/>
    </person>
    <person id="ped7" depart="16.37" type="ped_pedestrian">
        <walk from="578934717#0" to="573865733#1"/>
    </person>
    <person id="ped8" depart="18.71" type="ped_pedestrian">
        <walk from="-578942371#0" to="578934698"/>
    </person>
    <person id="ped9" depart="21.04" type="ped_pedestrian">
        <walk from="578942371#2" to="-184708337#0"/>
    </person>
    <person id="ped10" depart="23.38" type="ped_pedestrian">
        <walk from="578942371#1" to="578942331"/>
    </person>
    <person id="ped11" depart="25.72" type="ped_pedestrian">
        <walk from="184708334" to="-578934718#3"/>
    </person>
    <person id="ped12" depart="28.06" type="ped_pedestrian">
        <walk from="642337372" to="184708333"/>
    </person>
    <person id="ped13" depart="30.40" type="ped_pedestrian">
        <walk from="-578934698" to="-578934699"/>
    </person>
    <person id="ped14" depart="32.74" type="ped_pedestrian">
        <walk from="593766963" to="578934700#1"/>
    </person>
    <person id="ped15" depart="35.07" type="ped_pedestrian">
        <walk from="578942371#1" to="578942358"/>
    </person>
    <person id="ped16" depart="37.41" type="ped_pedestrian">
        <walk from="436291064#1" to="642361032"/>
    </person>
    <person id="ped17" depart="39.75" type="ped_pedestrian">
        <walk from="278328405#1" to="578605861#1"/>
    </person>
    <person id="ped18" depart="42.09" type="ped_pedestrian">
        <walk from="578942375" to="578934709#1"/>
    </person>
    <person id="ped19" depart="44.43" type="ped_pedestrian">
        <walk from="5955850#1" to="578934691#0"/>
    </person>
    <person id="ped20" depart="46.77" type="ped_pedestrian">
        <walk from="578942335" to="-419814433#2"/>
    </person>
    <person id="ped21" depart="49.10" type="ped_pedestrian">
        <walk from="-578942371#1" to="-5962129#2"/>
    </person>
    <person id="ped22" depart="51.44" type="ped_pedestrian">
        <walk from="-578934690" to="-578942372#0"/>
    </person>
    <person id="ped23" depart="53.78" type="ped_pedestrian">
        <walk from="-578934700#0" to="-5955850#2"/>
    </person>
    <person id="ped24" depart="56.12" type="ped_pedestrian">
        <walk from="578934713#1" to="184711452"/>
    </person>
    <person id="ped25" depart="58.46" type="ped_pedestrian">
        <walk from="234953562" to="-578942367#1"/>
    </person>
    <person id="ped26" depart="60.80" type="ped_pedestrian">
        <walk from="-593766965" to="641705064#1"/>
    </person>
    <person id="ped27" depart="63.13" type="ped_pedestrian">
        <walk from="578934717#0" to="578934702"/>
    </person>
    <person id="ped28" depart="65.47" type="ped_pedestrian">
        <walk from="-578942331" to="578942358"/>
    </person>
    <person id="ped29" depart="67.81" type="ped_pedestrian">
        <walk from="-578934723" to="278328405#1"/>
    </person>
    <person id="ped30" depart="70.15" type="ped_pedestrian">
        <walk from="89922370#5" to="578934714"/>
    </person>
    <person id="ped31" depart="72.49" type="ped_pedestrian">
        <walk from="578605861#2" to="578934724#0"/>
    </person>
    <person id="ped32" depart="74.83" type="ped_pedestrian">
        <walk from="593766962#0" to="578942367#1"/>
    </person>
    <person id="ped33" depart="77.16" type="ped_pedestrian">
        <walk from="-578942371#2" to="-184711461"/>
    </person>
    <person id="ped34" depart="79.50" type="ped_pedestrian">
        <walk from="-89927838#3" to="-593766965"/>
    </person>
    <person id="ped35" depart="81.84" type="ped_pedestrian">
        <walk from="-578942367#1" to="641705065"/>
    </person>
    <person id="ped36" depart="84.18" type="ped_pedestrian">
        <walk from="5962129#2" to="-89927838#3"/>
    </person>
    <person id="ped37" depart="86.52" type="ped_pedestrian">
        <walk from="578934717#1" to="36054466#2"/>
    </person>
    <person id="ped38" depart="88.86" type="ped_pedestrian">
        <walk from="634644489" to="436291016#1"/>
    </person>
    <person id="ped39" depart="91.19" type="ped_pedestrian">
        <walk from="-593766965" to="-578942375"/>
    </person>
    <person id="ped40" depart="93.53" type="ped_pedestrian">
        <walk from="578605862#0" to="-593766964"/>
    </person>
    <person id="ped41" depart="95.87" type="ped_pedestrian">
        <walk from="578934692" to="6024091#2"/>
    </person>
    <person id="ped42" depart="98.21" type="ped_pedestrian">
        <walk from="36054466#3" to="-578942370"/>
    </person>
    <person id="ped43" depart="100.55" type="ped_pedestrian">
        <walk from="89927838#3" to="436291020#1"/>
    </person>
    <person id="ped44" depart="102.89" type="ped_pedestrian">
        <walk from="-578934692" to="-419814433#2"/>
    </person>
    <person id="ped45" depart="105.22" type="ped_pedestrian">
        <walk from="-578934709#0" to="578934712"/>
    </person>
    <person id="ped46" depart="107.56" type="ped_pedestrian">
        <walk from="578942369#1" to="36054466#9"/>
    </person>
    <person id="ped47" depart="109.90" type="ped_pedestrian">
        <walk from="-578605861#2" to="36054466#0"/>
    </person>
    <person id="ped48" depart="112.24" type="ped_pedestrian">
        <walk from="89927838#3" to="436291062"/>
    </person>
    <person id="ped49" depart="114.58" type="ped_pedestrian">
        <walk from="642337374#1" to="5955850#1"/>
    </person>
    <person id="ped50" depart="116.92" type="ped_pedestrian">
        <walk from="-184708337#1" to="578942356"/>
    </person>
    <person id="ped51" depart="119.25" type="ped_pedestrian">
        <walk from="578934723" to="436291064#1"/>
    </person>
    <person id="ped52" depart="121.59" type="ped_pedestrian">
        <walk from="-593766965" to="578934715"/>
    </person>
    <person id="ped53" depart="123.93" type="ped_pedestrian">
        <walk from="-578934709#0" to="419814433#2"/>
    </person>
    <person id="ped54" depart="126.27" type="ped_pedestrian">
        <walk from="436291016#0" to="641705146#2"/>
    </person>
    <person id="ped55" depart="128.61" type="ped_pedestrian">
        <walk from="5962129#1" to="-593766964"/>
    </person>
    <person id="ped56" depart="130.95" type="ped_pedestrian">
        <walk from="436291019" to="-578942344"/>
    </person>
    <person id="ped57" depart="133.28" type="ped_pedestrian">
        <walk from="634644489" to="5962129#0"/>
    </person>
    <person id="ped58" depart="135.62" type="ped_pedestrian">
        <walk from="-5962129#4" to="578934714"/>
    </person>
    <person id="ped59" depart="137.96" type="ped_pedestrian">
        <walk from="578934702" to="-578934718#3"/>
    </person>
    <person id="ped60" depart="140.30" type="ped_pedestrian">
        <walk from="578942364" to="436291064#1"/>
    </person>
    <person id="ped61" depart="142.64" type="ped_pedestrian">
        <walk from="578942367#2" to="436291062"/>
    </person>
    <person id="ped62" depart="144.97" type="ped_pedestrian">
        <walk from="-184708333" to="132579346#1"/>
    </person>
    <person id="ped63" depart="147.31" type="ped_pedestrian">
        <walk from="-184708337#3" to="641705063#3"/>
    </person>
    <person id="ped64" depart="149.65" type="ped_pedestrian">
        <walk from="5962129#2" to="578942375"/>
    </person>
    <person id="ped65" depart="151.99" type="ped_pedestrian">
        <walk from="-641705065" to="-578605861#1"/>
    </person>
    <person id="ped66" depart="154.33" type="ped_pedestrian">
        <walk from="5962129#2" to="641705146#0"/>
    </person>
    <person id="ped67" depart="156.67" type="ped_pedestrian">
        <walk from="-578934691#1" to="436291016#7"/>
    </person>
    <person id="ped68" depart="159.00" type="ped_pedestrian">
        <walk from="-578605862#2" to="578942364"/>
    </person>
    <person id="ped69" depart="161.34" type="ped_pedestrian">
        <walk from="578942365" to="-578934715"/>
    </person>
    <person id="ped70" depart="163.68" type="ped_pedestrian">
        <walk from="436291016#4" to="578605861#0"/>
    </person>
    <person id="ped71" depart="166.02" type="ped_pedestrian">
        <walk from="-593766965" to="5962129#1"/>
    </person>
    <person id="ped72" depart="168.36" type="ped_pedestrian">
        <walk from="36054466#9" to="-578942367#1"/>
    </person>
    <person id="ped73" depart="170.70" type="ped_pedestrian">
        <walk from="436291064#1" to="578942358"/>
    </person>
    <person id="ped74" depart="173.03" type="ped_pedestrian">
        <walk from="-578942365" to="-89927838#0"/>
    </person>
    <person id="ped75" depart="175.37" type="ped_pedestrian">
        <walk from="89927838#0" to="578934717#0"/>
    </person>
    <person id="ped76" depart="177.71" type="ped_pedestrian">
        <walk from="419814433#4" to="436291021#0"/>
    </person>
    <person id="ped77" depart="180.05" type="ped_pedestrian">
        <walk from="-578934712" to="-578942371#1"/>
    </person>
    <person id="ped78" depart="182.39" type="ped_pedestrian">
        <walk from="184708333" to="578934698"/>
    </person>
    <person id="ped79" depart="184.73" type="ped_pedestrian">
        <walk from="-578942371#2" to="-578942371#0"/>
    </person>
    <person id="ped80" depart="187.06" type="ped_pedestrian">
        <walk from="-578605862#2" to="578934713#0"/>
    </person>
    <person id="ped81" depart="189.40" type="ped_pedestrian">
        <walk from="-578942371#2" to="6024091#5"/>
    </person>
    <person id="ped82" depart="191.74" type="ped_pedestrian">
        <walk from="5955850#0" to="-578605862#2"/>
    </person>
    <person id="ped83" depart="194.08" type="ped_pedestrian">
        <walk from="-578942372#1" to="578934718#3"/>
    </person>
    <person id="ped84" depart="196.42" type="ped_pedestrian">
        <walk from="-578942367#2" to="-578934717#0"/>
    </person>
    <person id="ped85" depart="198.76" type="ped_pedestrian">
        <walk from="641705064#0" to="578934689"/>
    </person>
    <person id="ped86" depart="201.09" type="ped_pedestrian">
        <walk from="436291016#4" to="578942368#1"/>
    </person>
    <person id="ped87" depart="203.43" type="ped_pedestrian">
        <walk from="578942371#1" to="-578942357"/>
    </person>
    <person id="ped88" depart="205.77" type="ped_pedestrian">
        <walk from="-578934699" to="419814433#1"/>
    </person>
    <person id="ped89" depart="208.11" type="ped_pedestrian">
        <walk from="36054466#9" to="436291016#2"/>
    </person>
    <person id="ped90" depart="210.45" type="ped_pedestrian">
        <walk from="578942358" to="578934719"/>
    </person>
    <person id="ped91" depart="212.79" type="ped_pedestrian">
        <walk from="89922370#0" to="-578934699"/>
    </person>
    <person id="ped92" depart="215.12" type="ped_pedestrian">
        <walk from="36054466#4" to="184708333"/>
    </person>
    <person id="ped93" depart="217.46" type="ped_pedestrian">
        <walk from="5955850#1" to="-593766960"/>
    </person>
    <person id="ped94" depart="219.80" type="ped_pedestrian">
        <walk from="-578942357" to="436291013"/>
    </person>
    <person id="ped95" depart="222.14" type="ped_pedestrian">
        <walk from="36054466#9" to="-5955850#2"/>
    </person>
    <person id="ped96" depart="224.48" type="ped_pedestrian">
        <walk from="-593766960" to="641705063#1"/>
    </person>
    <person id="ped97" depart="226.82" type="ped_pedestrian">
        <walk from="436291010" to="5955850#1"/>
    </person>
    <person id="ped98" depart="229.15" type="ped_pedestrian">
        <walk from="578605861#0" to="-419814433#4"/>
    </person>
    <person id="ped99" depart="231.49" type="ped_pedestrian">
        <walk from="89927838#3" to="593766961"/>
    </person>
    <person id="ped100" depart="233.83" type="ped_pedestrian">
        <walk from="642337374#1" to="641705063#2"/>
    </person>
    <person id="ped101" depart="236.17" type="ped_pedestrian">
        <walk from="593766964" to="-578934726"/>
    </person>
    <person id="ped102" depart="238.51" type="ped_pedestrian">
        <walk from="436291016#7" to="-578942367#2"/>
    </person>
    <person id="ped103" depart="240.85" type="ped_pedestrian">
        <walk from="36054466#4" to="-578605861#1"/>
    </person>
    <person id="ped104" depart="243.18" type="ped_pedestrian">
        <walk from="278328405#1" to="89922370#0"/>
    </person>
    <person id="ped105" depart="245.52" type="ped_pedestrian">
        <walk from="-593766965" to="578942368#1"/>
    </person>
    <person id="ped106" depart="247.86" type="ped_pedestrian">
        <walk from="436291016#0" to="36054466#9"/>
    </person>
    <person id="ped107" depart="250.20" type="ped_pedestrian">
        <walk from="642337372" to="89927838#0"/>
    </person>
    <person id="ped108" depart="252.54" type="ped_pedestrian">
        <walk from="578605861#1" to="578942355"/>
    </person>
    <person id="ped109" depart="254.88" type="ped_pedestrian">
        <walk from="-578934718#3" to="-5962129#4"/>
    </person>
    <person id="ped110" depart="257.21" type="ped_pedestrian">
        <walk from="642337374#1" to="578934691#0"/>
    </person>
    <person id="ped111" depart="259.55" type="ped_pedestrian">
        <walk from="573865733#0" to="578942361#1"/>
    </person>
    <person id="ped112" depart="261.89" type="ped_pedestrian">
        <walk from="-578605861#1" to="578934692"/>
    </person>
    <person id="ped113" depart="264.23" type="ped_pedestrian">
        <walk from="436291019" to="593766965"/>
    </person>
    <person id="ped114" depart="266.57" type="ped_pedestrian">
        <walk from="-578934719" to="642337373"/>
    </person>
    <person id="ped115" depart="268.90" type="ped_pedestrian">
        <walk from="-578934691#0" to="-578942356"/>
    </person>
    <person id="ped116" depart="271.24" type="ped_pedestrian">
        <walk from="578934699" to="578934719"/>
    </person>
    <person id="ped117" depart="273.58" type="ped_pedestrian">
        <walk from="-578942372#0" to="-578934711"/>
    </person>
    <person id="ped118" depart="275.92" type="ped_pedestrian">
        <walk from="5962129#5" to="-578942375"/>
    </person>
    <person id="ped119" depart="278.26" type="ped_pedestrian">
        <walk from="578934699" to="578934709#1"/>
    </person>
    <person id="ped120" depart="280.60" type="ped_pedestrian">
        <walk from="36054466#8" to="578934691#1"/>
    </person>
    <person id="ped121" depart="282.93" type="ped_pedestrian">
        <walk from="436291029" to="641705064#0"/>
    </person>
    <person id="ped122" depart="285.27" type="ped_pedestrian">
        <walk from="-578942367#0" to="578942355"/>
    </person>
    <person id="ped123" depart="287.61" type="ped_pedestrian">
        <walk from="-578942372#1" to="36054466#2"/>
    </person>
    <person id="ped124" depart="289.95" type="ped_pedestrian">
        <walk from="578934718#3" to="-5962129#4"/>
    </person>
    <person id="ped125" depart="292.29" type="ped_pedestrian">
        <walk from="132579327" to="578942361#2"/>
    </person>
    <person id="ped126" depart="294.63" type="ped_pedestrian">
        <walk from="-578934689" to="436291016#1"/>
    </person>
    <person id="ped127" depart="296.96" type="ped_pedestrian">
        <walk from="89927838#3" to="89927838#3"/>
    </person>
    <person id="ped128" depart="299.30" type="ped_pedestrian">
        <walk from="-578934689" to="-578942367#2"/>
    </person>
    <person id="ped129" depart="301.64" type="ped_pedestrian">
        <walk from="-593766965" to="641705064#0"/>
    </person>
    <person id="ped130" depart="303.98" type="ped_pedestrian">
        <walk from="5962129#3" to="5962129#2"/>
    </person>
    <person id="ped131" depart="306.32" type="ped_pedestrian">
        <walk from="234953562" to="-578934719"/>
    </person>
    <person id="ped132" depart="308.66" type="ped_pedestrian">
        <walk from="593766960" to="578942334"/>
    </person>
    <person id="ped133" depart="310.99" type="ped_pedestrian">
        <walk from="578934702" to="89922370#0"/>
    </person>
    <person id="ped134" depart="313.33" type="ped_pedestrian">
        <walk from="578934717#1" to="-184708337#0"/>
    </person>
    <person id="ped135" depart="315.67" type="ped_pedestrian">
        <walk from="578942372#1" to="-5962129#4"/>
    </person>
    <person id="ped136" depart="318.01" type="ped_pedestrian">
        <walk from="578934718#1" to="641705064#1"/>
    </person>
    <person id="ped137" depart="320.35" type="ped_pedestrian">
        <walk from="-578934717#0" to="-578934709#1"/>
    </person>
    <person id="ped138" depart="322.69" type="ped_pedestrian">
        <walk from="-578934700#1" to="578605861#1"/>
    </person>
    <person id="ped139" depart="325.02" type="ped_pedestrian">
        <walk from="-5955850#1" to="578934701"/>
    </person>
    <person id="ped140" depart="327.36" type="ped_pedestrian">
        <walk from="578942355" to="-578942365"/>
    </person>
    <person id="ped141" depart="329.70" type="ped_pedestrian">
        <walk from="578934713#1" to="-593766964"/>
    </person>
    <person id="ped142" depart="332.04" type="ped_pedestrian">
        <walk from="436291016#8" to="6024091#5"/>
    </person>
    <person id="ped143" depart="334.38" type="ped_pedestrian">
        <walk from="593766963" to="-578934698"/>
    </person>
    <person id="ped144" depart="336.72" type="ped_pedestrian">
        <walk from="36054466#9" to="-5955850#2"/>
    </person>
    <person id="ped145" depart="339.05" type="ped_pedestrian">
        <walk from="-184708333" to="578942367#0"/>
    </person>
    <person id="ped146" depart="341.39" type="ped_pedestrian">
        <walk from="578934714" to="-593766964"/>
    </person>
    <person id="ped147" depart="343.73" type="ped_pedestrian">
        <walk from="578942361#0" to="578605861#0"/>
    </person>
    <person id="ped148" depart="346.07" type="ped_pedestrian">
        <walk from="419814433#0" to="-184708337#1"/>
    </person>
    <person id="ped149" depart="348.41" type="ped_pedestrian">
        <walk from="-578934689" to="5962129#3"/>
    </person>
    <person id="ped150" depart="350.75" type="ped_pedestrian">
        <walk from="6024091#3" to="573865733#1"/>
    </person>
    <person id="ped151" depart="353.08" type="ped_pedestrian">
        <walk from="593766960" to="578934691#1"/>
    </person>
    <person id="ped152" depart="355.42" type="ped_pedestrian">
        <walk from="-578934718#2" to="-578934714"/>
    </person>
    <person id="ped153" depart="357.76" type="ped_pedestrian">
        <walk from="-89927838#0" to="6024091#2"/>
    </person>
    <person id="ped154" depart="360.10" type="ped_pedestrian">
        <walk from="578942370" to="5955850#1"/>
    </person>
    <person id="ped155" depart="362.44" type="ped_pedestrian">
        <walk from="6024091#2" to="-578942367#1"/>
    </person>
    <person id="ped156" depart="364.78" type="ped_pedestrian">
        <walk from="-593766960" to="-578934700#0"/>
    </person>
    <person id="ped157" depart="367.11" type="ped_pedestrian">
        <walk from="578942368#0" to="5962129#4"/>
    </person>
    <person id="ped158" depart="369.45" type="ped_pedestrian">
        <walk from="36054466#5" to="578934711"/>
    </person>
    <person id="ped159" depart="371.79" type="ped_pedestrian">
        <walk from="-578934718#3" to="641705063#3"/>
    </person>
    <person id="ped160" depart="374.13" type="ped_pedestrian">
        <walk from="5955850#2" to="642751754#0"/>
    </person>
    <person id="ped161" depart="376.47" type="ped_pedestrian">
        <walk from="578942371#2" to="5962129#3"/>
    </person>
    <person id="ped162" depart="378.81" type="ped_pedestrian">
        <walk from="-184711458" to="578942360#1"/>
    </person>
    <person id="ped163" depart="381.14" type="ped_pedestrian">
        <walk from="184708332" to="641705063#3"/>
    </person>
    <person id="ped164" depart="383.48" type="ped_pedestrian">
        <walk from="578942371#0" to="5955850#2"/>
    </person>
    <person id="ped165" depart="385.82" type="ped_pedestrian">
        <walk from="578942371#2" to="-593766965"/>
    </person>
    <person id="ped166" depart="388.16" type="ped_pedestrian">
        <walk from="578942368#1" to="-578934709#0"/>
    </person>
    <person id="ped167" depart="390.50" type="ped_pedestrian">
        <walk from="5962129#1" to="5955850#0"/>
    </person>
    <person id="ped168" depart="392.84" type="ped_pedestrian">
        <walk from="-578942371#0" to="578942372#1"/>
    </person>
    <person id="ped169" depart="395.17" type="ped_pedestrian">
        <walk from="436291016#10" to="-641705065"/>
    </person>
    <person id="ped170" depart="397.51" type="ped_pedestrian">
        <walk from="578942369#1" to="-578942371#1"/>
    </person>
    <person id="ped171" depart="399.85" type="ped_pedestrian">
        <walk from="-184711452" to="-578942358"/>
    </person>
    <person id="ped172" depart="402.19" type="ped_pedestrian">
        <walk from="184708330" to="5955850#2"/>
    </person>
    <person id="ped173" depart="404.53" type="ped_pedestrian">
        <walk from="642337374#0" to="-5955850#2"/>
    </person>
    <person id="ped174" depart="406.86" type="ped_pedestrian">
        <walk from="578934715" to="36054466#3"/>
    </person>
    <person id="ped175" depart="409.20" type="ped_pedestrian">
        <walk from="642751754#1" to="436291064#1"/>
    </person>
    <person id="ped176" depart="411.54" type="ped_pedestrian">
        <walk from="641705064#1" to="-578934709#1"/>
    </person>
    <person id="ped177" depart="413.88" type="ped_pedestrian">
        <walk from="642337374#1" to="-578942344"/>
    </person>
    <person id="ped178" depart="416.22" type="ped_pedestrian">
        <walk from="642337373" to="-593766965"/>
    </person>
    <person id="ped179" depart="418.56" type="ped_pedestrian">
        <walk from="-578934709#0" to="419814433#2"/>
    </person>
    <person id="ped180" depart="420.89" type="ped_pedestrian">
        <walk from="578942358" to="-89927838#3"/>
    </person>
    <person id="ped181" depart="423.23" type="ped_pedestrian">
        <walk from="578934701" to="436291020#1"/>
    </person>
    <person id="ped182" depart="425.57" type="ped_pedestrian">
        <walk from="36054466#1" to="578934691#0"/>
    </person>
    <person id="ped183" depart="427.91" type="ped_pedestrian">
        <walk from="-593766962#1" to="578942354#0"/>
    </person>
    <person id="ped184" depart="430.25" type="ped_pedestrian">
        <walk from="-184708333" to="641705063#2"/>
    </person>
    <person id="ped185" depart="432.59" type="ped_pedestrian">
        <walk from="436291064#1" to="578942355"/>
    </person>
    <person id="ped186" depart="434.92" type="ped_pedestrian">
        <walk from="578942361#0" to="578934718#3"/>
    </person>
    <person id="ped187" depart="437.26" type="ped_pedestrian">
        <walk from="184711452" to="-578605862#2"/>
    </person>
    <person id="ped188" depart="439.60" type="ped_pedestrian">
        <walk from="578934718#2" to="184708330"/>
    </person>
    <person id="ped189" depart="441.94" type="ped_pedestrian">
        <walk from="-89927838#3" to="593766964"/>
    </person>
    <person id="ped190" depart="444.28" type="ped_pedestrian">
        <walk from="578942355" to="-5962129#5"/>
    </person>
    <person id="ped191" depart="446.62" type="ped_pedestrian">
        <walk from="-89927838#0" to="36054466#6"/>
    </person>
    <person id="ped192" depart="448.95" type="ped_pedestrian">
        <walk from="36054466#4" to="-5962129#3"/>
    </person>
    <person id="ped193" depart="451.29" type="ped_pedestrian">
        <walk from="-578934714" to="36054466#9"/>
    </person>
    <person id="ped194" depart="453.63" type="ped_pedestrian">
        <walk from="641705065" to="578934722"/>
    </person>
    <person id="ped195" depart="455.97" type="ped_pedestrian">
        <walk from="6024091#3" to="578934709#0"/>
    </person>
    <person id="ped196" depart="458.31" type="ped_pedestrian">
        <walk from="-5962129#5" to="573865733#1"/>
    </person>
    <person id="ped197" depart="460.65" type="ped_pedestrian">
        <walk from="-184708333" to="-5962129#1"/>
    </person>
    <person id="ped198" depart="462.98" type="ped_pedestrian">
        <walk from="419814433#1" to="578934691#0"/>
    </person>
    <person id="ped199" depart="465.32" type="ped_pedestrian">
        <walk from="578934717#1" to="436291016#2"/>
    </person>
    <person id="ped200" depart="467.66" type="ped_pedestrian">
        <walk from="436291010" to="-578942367#2"/>
    </person>
    <person id="ped201" depart="470.00" type="ped_pedestrian">
        <walk from="436291016#4" to="6024091#3"/>
    </person>
    <person id="ped202" depart="472.34" type="ped_pedestrian">
        <walk from="578942370" to="-578942331"/>
    </person>
    <person id="ped203" depart="474.68" type="ped_pedestrian">
        <walk from="-578934691#1" to="436291020#2"/>
    </person>
    <person id="ped204" depart="477.01" type="ped_pedestrian">
        <walk from="578934713#1" to="184708332"/>
    </person>
    <person id="ped205" depart="479.35" type="ped_pedestrian">
        <walk from="578942372#1" to="578942361#2"/>
    </person>
    <person id="ped206" depart="481.69" type="ped_pedestrian">
        <walk from="578934719" to="-578942371#1"/>
    </person>
    <person id="ped207" depart="484.03" type="ped_pedestrian">
        <walk from="-578942364" to="-184711458"/>
    </person>
    <person id="ped208" depart="486.37" type="ped_pedestrian">
        <walk from="-578942375" to="436291016#4"/>
    </person>
    <person id="ped209" depart="488.71" type="ped_pedestrian">
        <walk from="593766964" to="-578934689"/>
    </person>
    <person id="ped210" depart="491.04" type="ped_pedestrian">
        <walk from="36054466#7" to="578934713#0"/>
    </person>
    <person id="ped211" depart="493.38" type="ped_pedestrian">
        <walk from="-578942358" to="578942331"/>
    </person>
    <person id="ped212" depart="495.72" type="ped_pedestrian">
        <walk from="436291016#9" to="-578942372#2"/>
    </person>
    <person id="ped213" depart="498.06" type="ped_pedestrian">
        <walk from="578934718#0" to="-184708337#0"/>
    </person>
    <person id="ped214" depart="500.40" type="ped_pedestrian">
        <walk from="578942361#2" to="578942367#0"/>
    </person>
    <person id="ped215" depart="502.74" type="ped_pedestrian">
        <walk from="-578934700#1" to="419814433#0"/>
    </person>
    <person id="ped216" depart="505.07" type="ped_pedestrian">
        <walk from="-578942334" to="642337372"/>
    </person>
    <person id="ped217" depart="507.41" type="ped_pedestrian">
        <walk from="436291021#0" to="-419814433#4"/>
    </person>
    <person id="ped218" depart="509.75" type="ped_pedestrian">
        <walk from="-593766960" to="593766964"/>
    </person>
    <person id="ped219" depart="512.09" type="ped_pedestrian">
        <walk from="436291016#1" to="578942371#0"/>
    </person>
    <person id="ped220" depart="514.43" type="ped_pedestrian">
        <walk from="578934718#2" to="89922370#0"/>
    </person>
    <person id="ped221" depart="516.77" type="ped_pedestrian">
        <walk from="578934699" to="641705146#1"/>
    </person>
    <person id="ped222" depart="519.10" type="ped_pedestrian">
        <walk from="5962129#5" to="578934709#0"/>
    </person>
    <person id="ped223" depart="521.44" type="ped_pedestrian">
        <walk from="578942355" to="436291020#0"/>
    </person>
    <person id="ped224" depart="523.78" type="ped_pedestrian">
        <walk from="578942375" to="573865733#1"/>
    </person>
    <person id="ped225" depart="526.12" type="ped_pedestrian">
        <walk from="6024091#2" to="578942361#0"/>
    </person>
    <person id="ped226" depart="528.46" type="ped_pedestrian">
        <walk from="436291016#4" to="-593766963"/>
    </person>
    <person id="ped227" depart="530.80" type="ped_pedestrian">
        <walk from="-578942375" to="578934714"/>
    </person>
    <person id="ped228" depart="533.13" type="ped_pedestrian">
        <walk from="578942365" to="436291029"/>
    </person>
    <person id="ped229" depart="535.47" type="ped_pedestrian">
        <walk from="578934712" to="-5955850#1"/>
    </person>
    <person id="ped230" depart="537.81" type="ped_pedestrian">
        <walk from="-578934690" to="-5962129#1"/>
    </person>
    <person id="ped231" depart="540.15" type="ped_pedestrian">
        <walk from="-5955850#0" to="132579327"/>