<?xml version="1.0" encoding="UTF-8"?>

<!-- generated on Wed Aug  7 15:30:38 2019 by Eclipse SUMO duarouter Version 1.2.0
<configuration xmlns:xsi="http://www.w3.org/2001/XMLSchema-instance" xsi:noNamespaceSchemaLocation="http://sumo.dlr.de/xsd/duarouterConfiguration.xsd">

    <input>
        <net-file value="osm.net.xml"/>
        <route-files value="osm.bus.trips.xml"/>
    </input>

    <output>
        <output-file value="osm.bus.trips.xml.tmp"/>
        <write-trips value="true"/>
    </output>

    <time>
        <begin value="0"/>
        <end value="3600.0"/>
    </time>

    <report>
        <no-warnings value="true"/>
        <ignore-errors value="true"/>
        <no-step-log value="true"/>
    </report>

</configuration>
-->

<routes xmlns:xsi="http://www.w3.org/2001/XMLSchema-instance" xsi:noNamespaceSchemaLocation="http://sumo.dlr.de/xsd/routes_file.xsd">
    <vType id="bus_bus" vClass="bus"/>
    <trip id="bus0" type="bus_bus" depart="0.00" departLane="best" departSpeed="max" from="6024091#0" to="5955850#2"/>
    <trip id="bus1" type="bus_bus" depart="12.71" departLane="best" from="641705064#0" to="5955850#2"/>
    <trip id="bus2" type="bus_bus" depart="25.41" departLane="best" from="436291064#1" to="5955850#2"/>
    <trip id="bus3" type="bus_bus" depart="38.12" departLane="best" departSpeed="max" from="89922370#0" to="436291016#7"/>
    <trip id="bus4" type="bus_bus" depart="50.82" departLane="best" departSpeed="max" from="-5955850#2" to="593766962#0"/>
    <trip id="bus5" type="bus_bus" depart="63.53" departLane="best" departSpeed="max" from="-5955850#2" to="436291016#3"/>
    <trip id="bus6" type="bus_bus" depart="76.24" departLane="best" departSpeed="max" from="89922370#0" to="641705146#2"/>
    <trip id="bus7" type="bus_bus" depart="88.94" departLane="best" departSpeed="max" from="-5955850#2" to="36054466#1"/>
    <trip id="bus8" type="bus_bus" depart="101.65" departLane="best" departSpeed="max" from="89922370#0" to="436291064#0"/>
    <trip id="bus9" type="bus_bus" depart="114.36" departLane="best" departSpeed="max" from="436291021#0" to="641705146#2"/>
    <trip id="bus10" type="bus_bus" depart="127.06" departLane="best" departSpeed="max" from="573865733#0" to="5955850#2"/>
    <trip id="bus11" type="bus_bus" depart="139.77" departLane="best" departSpeed="max" from="573865733#0" to="593766962#0"/>
    <trip id="bus13" type="bus_bus" depart="165.18" departLane="best" departSpeed="max" from="-5955850#2" to="-5962129#1"/>
    <trip id="bus14" type="bus_bus" depart="177.89" departLane="best" departSpeed="max" from="-5955850#2" to="436291031"/>
    <trip id="bus15" type="bus_bus" depart="190.59" departLane="best" departSpeed="max" from="89922370#0" to="-5962129#1"/>
    <trip id="bus16" type="bus_bus" depart="203.30" departLane="best" departSpeed="max" from="-5955850#2" to="436291016#3"/>
    <trip id="bus17" type="bus_bus" depart="216.01" departLane="best" from="36054466#3" to="5955850#2"/>
    <trip id="bus18" type="bus_bus" depart="228.71" departLane="best" departSpeed="max" from="-5955850#2" to="436291016#2"/>
    <trip id="bus19" type="bus_bus" depart="241.42" departLane="best" departSpeed="max" from="89922370#0" to="5955850#2"/>
    <trip id="bus20" type="bus_bus" depart="254.12" departLane="best" from="-641705065" to="5955850#2"/>
    <trip id="bus21" type="bus_bus" depart="266.83" departLane="best" departSpeed="max" from="-5955850#2" to="436291016#2"/>
    <trip id="bus22" type="bus_bus" depart="279.54" departLane="best" departSpeed="max" from="642337374#0" to="593766962#0"/>
    <trip id="bus23" type="bus_bus" depart="292.24" departLane="best" from="36054466#0" to="5955850#2"/>
    <trip id="bus24" type="bus_bus" depart="304.95" departLane="best" departSpeed="max" from="573865733#0" to="5955850#2"/>
    <trip id="bus25" type="bus_bus" depart="317.66" departLane="best" departSpeed="max" from="419814433#0" to="5955850#2"/>
    <trip id="bus26" type="bus_bus" depart="330.36" departLane="best" departSpeed="max" from="-5955850#2" to="436291016#7"/>
    <trip id="bus27" type="bus_bus" depart="343.07" departLane="best" departSpeed="max" from="-5955850#2" to="-419814433#0"/>
    <trip id="bus28" type="bus_bus" depart="355.77" departLane="best" departSpeed="max" from="419814433#0" to="5955850#2"/>
    <trip id="bus29" type="bus_bus" depart="368.48" departLane="best" departSpeed="max" from="-5955850#2" to="642751754#1"/>
    <trip id="bus30" type="bus_bus" depart="381.19" departLane="best" departSpeed="max" from="-5955850#2" to="642751754#1"/>
    <trip id="bus31" type="bus_bus" depart="393.89" departLane="best" departSpeed="max" from="6024091#0" to="642751754#1"/>
    <trip id="bus32" type="bus_bus" depart="406.60" departLane="best" departSpeed="max" from="89922370#0" to="436291016#9"/>
    <trip id="bus33" type="bus_bus" depart="419.30" departLane="best" departSpeed="max" from="6024091#0" to="642751754#0"/>
    <trip id="bus34" type="bus_bus" depart="432.01" departLane="best" from="36054466#0" to="5955850#2"/>
    <trip id="bus35" type="bus_bus" depart="444.72" departLane="best" from="5962129#3" to="5955850#2"/>
    <trip id="bus36" type="bus_bus" depart="457.42" departLane="best" departSpeed="max" from="573865733#0" to="593766962#0"/>
    <trip id="bus37" type="bus_bus" depart="470.13" departLane="best" departSpeed="max" from="419814433#0" to="5955850#2"/>
    <trip id="bus39" type="bus_bus" depart="495.54" departLane="best" departSpeed="max" from="-5955850#2" to="642751754#1"/>
    <trip id="bus40" type="bus_bus" depart="508.25" departLane="best" from="-641705065" to="5955850#2"/>
    <trip id="bus41" type="bus_bus" depart="520.95" departLane="best" departSpeed="max" from="573865733#0" to="36054466#10"/>
    <trip id="bus42" type="bus_bus" depart="533.66" departLane="best" from="419814433#1" to="5955850#2"/>
    <trip id="bus43" type="bus_bus" depart="546.37" departLane="best" departSpeed="max" from="642337374#0" to="593766962#0"/>
    <trip id="bus44" type="bus_bus" depart="559.07" departLane="best" departSpeed="max" from="6024091#0" to="642751754#1"/>
    <trip id="bus45" type="bus_bus" depart="571.78" departLane="best" departSpeed="max" from="-5955850#2" to="36054466#10"/>
    <trip id="bus46" type="bus_bus" depart="584.49" departLane="best" departSpeed="max" from="-5955850#2" to="642751754#0"/>
    <trip id="bus47" type="bus_bus" depart="597.19" departLane="best" departSpeed="max" from="-5955850#2" to="436291016#6"/>
    <trip id="bus48" type="bus_bus" depart="609.90" departLane="best" departSpeed="max" from="89922370#0" to="436291016#10"/>
    <trip id="bus49" type="bus_bus" depart="622.60" departLane="best" departSpeed="max" from="6024091#0" to="-89927838#0"/>
    <trip id="bus50" type="bus_bus" depart="635.31" departLane="best" departSpeed="max" from="-5955850#2" to="436291062"/>
    <trip id="bus51" type="bus_bus" depart="648.02" departLane="best" departSpeed="max" from="6024091#0" to="436291029"/>
    <trip id="bus52" type="bus_bus" depart="660.72" departLane="best" departSpeed="max" from="-5955850#2" to="436291020#1"/>
    <trip id="bus53" type="bus_bus" depart="673.43" departLane="best" departSpeed="max" from="89922370#0" to="-419814433#1"/>
    <trip id="bus54" type="bus_bus" depart="686.13" departLane="best" departSpeed="max" from="6024091#0" to="278328405#1"/>
    <trip id="bus55" type="bus_bus" depart="698.84" departLane="best" departSpeed="max" from="6024091#0" to="642751754#1"/>
    <trip id="bus56" type="bus_bus" depart="711.55" departLane="best" departSpeed="max" from="-5955850#2" to="641705146#1"/>
    <trip id="bus57" type="bus_bus" depart="724.25" departLane="best" departSpeed="max" from="89922370#0" to="641705065"/>
    <trip id="bus58" type="bus_bus" depart="736.96" departLane="best" departSpeed="max" from="89922370#0" to="641705146#2"/>
    <trip id="bus59" type="bus_bus" depart="749.67" departLane="best" departSpeed="max" from="-5955850#2" to="-419814433#0"/>
    <trip id="bus61" type="bus_bus" depart="775.08" departLane="best" departSpeed="max" from="-5955850#2" to="436291020#2"/>
    <trip id="bus62" type="bus_bus" depart="787.78" departLane="best" departSpeed="max" from="573865733#0" to="593766962#0"/>
    <trip id="bus63" type="bus_bus" depart="800.49" departLane="best" departSpeed="max" from="-5955850#2" to="436291010"/>
    <trip id="bus64" type="bus_bus" depart="813.20" departLane="best" departSpeed="max" from="89927838#0" to="5955850#2"/>
    <trip id="bus65" type="bus_bus" depart="825.90" departLane="best" departSpeed="max" from="89922370#0" to="641705146#0"/>
    <trip id="bus66" type="bus_bus" depart="838.61" departLane="best" departSpeed="max" from="-5955850#2" to="36054466#4"/>
    <trip id="bus68" type="bus_bus" depart="864.02" departLane="best" departSpeed="max" from="6024091#0" to="436291029"/>
    <trip id="bus69" type="bus_bus" depart="876.73" departLane="best" departSpeed="max" from="-5955850#2" to="36054466#4"/>
    <trip id="bus70" type="bus_bus" depart="889.43" departLane="best" from="436291018" to="5955850#2"/>
    <trip id="bus73" type="bus_bus" depart="927.55" departLane="best" departSpeed="max" from="-5955850#2" to="593766962#0"/>
    <trip id="bus74" type="bus_bus" depart="940.26" departLane="best" departSpeed="max" from="573865733#0" to="593766962#0"/>
    <trip id="bus75" type="bus_bus" depart="952.97" departLane="best" from="-593766965" to="5955850#2"/>
    <trip id="bus76" type="bus_bus" depart="965.67" departLane="best" departSpeed="max" from="-5955850#2" to="234953562"/>
    <trip id="bus77" type="bus_bus" depart="978.38" departLane="best" departSpeed="max" from="-5955850#2" to="641705063#1"/>
    <trip id="bus79" type="bus_bus" depart="1003.79" departLane="best" departSpeed="max" from="419814433#0" to="5955850#2"/>
    <trip id="bus80" type="bus_bus" depart="1016.50" departLane="best" departSpeed="max" from="6024091#0" to="641705146#2"/>
    <trip id="bus81" type="bus_bus" depart="1029.20" departLane="best" departSpeed="max" from="89922370#0" to="6024091#2"/>
    <trip id="bus82" type="bus_bus" depart="1041.91" departLane="best" departSpeed="max" from="-5955850#2" to="419814433#1"/>
    <trip id="bus83" type="bus_bus" depart="1054.61" departLane="best" departSpeed="max" from="436291021#0" to="5955850#2"/>
    <trip id="bus84" type="bus_bus" depart="1067.32" departLane="best" from="-5962129#1" to="5955850#2"/>
    <trip id="bus85" type="bus_bus" depart="1080.03" departLane="best" departSpeed="max" from="89922370#0" to="641705146#2"/>
    <trip id="bus86" type="bus_bus" depart="1092.73" departLane="best" departSpeed="max" from="-5955850#2" to="278328405#0"/>
    <trip id="bus87" type="bus_bus" depart="1105.44" departLane="best" from="593766965" to="5955850#2"/>
    <trip id="bus88" type="bus_bus" depart="1118.15" departLane="best" from="234953562" to="5955850#2"/>
    <trip id="bus89" type="bus_bus" depart="1130.85" departLane="best" departSpeed="max" from="89922370#0" to="641705146#2"/>
    <trip id="bus90" type="bus_bus" depart="1143.56" departLane="best" departSpeed="max" from="-5955850#2" to="642751754#1"/>
    <trip id="bus91" type="bus_bus" depart="1156.26" departLane="best" departSpeed="max" from="89922370#0" to="641705146#2"/>
    <trip id="bus92" type="bus_bus" depart="1168.97" departLane="best" departSpeed="max" from="-5955850#2" to="-89927838#0"/>
    <trip id="bus93" type="bus_bus" depart="1181.68" departLane="best" departSpeed="max" from="-5955850#2" to="36054466#7"/>
    <trip id="bus94" type="bus_bus" depart="1194.38" departLane="best" departSpeed="max" from="-5955850#2" to="-89927838#0"/>
    <trip id="bus96" type="bus_bus" depart="1219.80" departLane="best" departSpeed="max" from="89922370#0" to="-419814433#0"/>
    <trip id="bus97" type="bus_bus" depart="1232.50" departLane="best" from="436291011" to="5955850#2"/>
    <trip id="bus98" type="bus_bus" depart="1245.21" departLane="best" departSpeed="max" from="573865733#0" to="5955850#2"/>
    <trip id="bus99" type="bus_bus" depart="1257.91" departLane="best" departSpeed="max" from="89922370#0" to="5955850#1"/>
    <trip id="bus100" type="bus_bus" depart="1270.62" departLane="best" from="36054466#9" to="5955850#2"/>
    <trip id="bus101" type="bus_bus" depart="1283.33" departLane="best" departSpeed="max" from="89922370#0" to="436291016#0"/>
    <trip id="bus102" type="bus_bus" depart="1296.03" departLane="best" from="36054466#0" to="5955850#2"/>
    <trip id="bus104" type="bus_bus" depart="1321.45" departLane="best" departSpeed="max" from="89922370#0" to="436291016#3"/>
    <trip id="bus105" type="bus_bus" depart="1334.15" departLane="best" departSpeed="max" from="-5955850#2" to="-419814433#0"/>
    <trip id="bus106" type="bus_bus" depart="1346.86" departLane="best" departSpeed="max" from="-5955850#2" to="36054466#7"/>
    <trip id="bus107" type="bus_bus" depart="1359.56" departLane="best" from="36054466#8" to="5955850#2"/>
    <trip id="bus108" type="bus_bus" depart="1372.27" departLane="best" departSpeed="max" from="-5955850#2" to="436291062"/>
    <trip id="bus109" type="bus_bus" depart="1384.98" departLane="best" from="36054466#8" to="5955850#2"/>
    <trip id="bus110" type="bus_bus" depart="1397.68" departLane="best" departSpeed="max" from="89922370#0" to="5955850#2"/>
    <trip id="bus111" type="bus_bus" depart="1410.39" departLane="best" departSpeed="max" from="89927838#0" to="5955850#2"/>
    <trip id="bus112" type="bus_bus" depart="1423.09" departLane="best" departSpeed="max" from="-5955850#2" to="36054466#8"/>
    <trip id="bus114" type="bus_bus" depart="1448.51" departLane="best" departSpeed="max" from="573865733#0" to="593766962#0"/>
    <trip id="bus115" type="bus_bus" depart="1461.21" departLane="best" from="641705064#1" to="5955850#2"/>
    <trip id="bus116" type="bus_bus" depart="1473.92" departLane="best" departSpeed="max" from="-5955850#2" to="36054466#7"/>
    <trip id="bus117" type="bus_bus" depart="1486.63" departLane="best" from="-5962129#5" to="5955850#2"/>
    <trip id="bus118" type="bus_bus" depart="1499.33" departLane="best" departSpeed="max" from="-5955850#2" to="436291016#1"/>
    <trip id="bus119" type="bus_bus" depart="1512.04" departLane="best" departSpeed="max" from="6024091#0" to="436291029"/>
    <trip id="bus120" type="bus_bus" depart="1524.74" departLane="best" departSpeed="max" from="419814433#0" to="5955850#2"/>
    <trip id="bus122" type="bus_bus" depart="1550.16" departLane="best" from="419814433#1" to="5955850#2"/>
    <trip id="bus123" type="bus_bus" depart="1562.86" departLane="best" departSpeed="max" from="-5955850#2" to="641705146#2"/>
    <trip id="bus124" type="bus_bus" depart="1575.57" departLane="best" departSpeed="max" from="419814433#0" to="5955850#2"/>
    <trip id="bus125" type="bus_bus" depart="1588.28" departLane="best" from="36054466#0" to="5955850#2"/>
    <trip id="bus126" type="bus_bus" depart="1600.98" departLane="best" from="-419814433#2" to="5955850#2"/>
    <trip id="bus127" type="bus_bus" depart="1613.69" departLane="best" departSpeed="max" from="-5955850#2" to="436291020#0"/>
    <trip id="bus128" type="bus_bus" depart="1626.39" departLane="best" from="436291010" to="5955850#2"/>
    <trip id="bus130" type="bus_bus" depart="1651.81" departLane="best" departSpeed="max" from="6024091#0" to="5955850#2"/>
    <trip id="bus131" type="bus_bus" depart="1664.51" departLane="best" departSpeed="max" from="6024091#0" to="-89927838#0"/>
    <trip id="bus132" type="bus_bus" depart="1677.22" departLane="best" departSpeed="max" from="-5955850#2" to="634644489"/>
    <trip id="bus133" type="bus_bus" depart="1689.92" departLane="best" from="641705063#3" to="5955850#2"/>
    <trip id="bus134" type="bus_bus" depart="1702.63" departLane="best" departSpeed="max" from="-5955850#2" to="-89927838#0"/>
    <trip id="bus135" type="bus_bus" depart="1715.34" departLane="best" departSpeed="max" from="-5955850#2" to="-419814433#0"/>
    <trip id="bus136" type="bus_bus" depart="1728.04" departLane="best" departSpeed="max" from="-5955850#2" to="641705064#1"/>
    <trip id="bus138" type="bus_bus" depart="1753.46" departLane="best" from="-593766960" to="5955850#2"/>
    <trip id="bus139" type="bus_bus" depart="1766.16" departLane="best" from="641705064#0" to="5955850#2"/>
    <trip id="bus140" type="bus_bus" depart="1778.87" departLane="best" departSpeed="max" from="89922370#0" to="-419814433#0"/>
    <trip id="bus141" type="bus_bus" depart="1791.57" departLane="best" departSpeed="max" from="89922370#0" to="6024091#5"/>
    <trip id="bus142" type="bus_bus" depart="1804.28" departLane="best" departSpeed="max" from="89922370#0" to="436291016#10"/>
    <trip id="bus143" type="bus_bus" depart="1816.99" departLane="best" departSpeed="max" from="-5955850#2" to="-89927838#0"/>
    <trip id="bus144" type="bus_bus" depart="1829.69" departLane="best" departSpeed="max" from="419814433#0" to="5955850#2"/>
    <trip id="bus145" type="bus_bus" depart="1842.40" departLane="best" departSpeed="max" from="-5955850#2" to="5962129#2"/>
    <trip id="bus146" type="bus_bus" depart="1855.11" departLane="best" departSpeed="max" from="-5955850#2" to="5962129#4"/>
    <trip id="bus147" type="bus_bus" depart="1867.81" departLane="best" from="-593766965" to="5955850#2"/>
    <trip id="bus148" type="bus_bus" depart="1880.52" departLane="best" departSpeed="max" from="6024091#0" to="642751754#1"/>
    <trip id="bus149" type="bus_bus" depart="1893.22" departLane="best" departSpeed="max" from="6024091#0" to="436291029"/>
    <trip id="bus150" type="bus_bus" depart="1905.93" departLane="best" departSpeed="max" from="573865733#0" to="593766962#0"/>
    <trip id="bus151" type="bus_bus" depart="1918.64" departLane="best" from="-641705065" to="5955850#2"/>
    <trip id="bus152" type="bus_bus" depart="1931.34" departLane="best" from="641705063#3" to="5955850#2"/>
    <trip id="bus153" type="bus_bus" depart="1944.05" departLane="best" departSpeed="max" from="89922370#0" to="642361032"/>
    <trip id="bus154" type="bus_bus" depart="1956.76" departLane="best" from="573865733#1" to="5955850#2"/>
    <trip id="bus155" type="bus_bus" depart="1969.46" departLane="best" departSpeed="max" from="89922370#0" to="5955850#2"/>
    <trip id="bus156" type="bus_bus" depart="1982.17" departLane="best" departSpeed="max" from="-5955850#2" to="-419814433#0"/>
    <trip id="bus157" type="bus_bus" depart="1994.87" departLane="best" from="5955850#0" to="5955850#2"/>
    <trip id="bus158" type="bus_bus" depart="2007.58" departLane="best" departSpeed="max" from="-593766962#1" to="5955850#2"/>
    <trip id="bus159" type="bus_bus" depart="2020.29" departLane="best" departSpeed="max" from="-5955850#2" to="36054466#10"/>
    <trip id="bus160" type="bus_bus" depart="2032.99" departLane="best" from="-5962129#5" to="5955850#2"/>
    <trip id="bus161" type="bus_bus" depart="2045.70" departLane="best" departSpeed="max" from="436291021#0" to="641705146#2"/>
    <trip id="bus162" type="bus_bus" depart="2058.40" departLane="best" departSpeed="max" from="-593766962#1" to="641705146#2"/>
    <trip id="bus163" type="bus_bus" depart="2071.11" departLane="best" departSpeed="max" from="-5955850#2" to="234953562"/>
    <trip id="bus164" type="bus_bus" depart="2083.82" departLane="best" from="-641705065" to="5955850#2"/>
    <trip id="bus165" type="bus_bus" depart="2096.52" departLane="best" departSpeed="max" from="-5955850#2" to="436291016#1"/>
    <trip id="bus166" type="bus_bus" depart="2109.23" departLane="best" departSpeed="max" from="-5955850#2" to="-5962129#0"/>
    <trip id="bus167" type="bus_bus" depart="2121.94" departLane="best" from="-89927838#3" to="5955850#2"/>
    <trip id="bus168" type="bus_bus" depart="2134.64" departLane="best" departSpeed="max" from="89922370#0" to="419814433#1"/>
    <trip id="bus169" type="bus_bus" depart="2147.35" departLane="best" departSpeed="max" from="-593766962#1" to="641705146#2"/>
    <trip id="bus170" type="bus_bus" depart="2160.05" departLane="best" from="641705063#3" to="5955850#2"/>
    <trip id="bus171" type="bus_bus" depart="2172.76" departLane="best" departSpeed="max" from="89922370#0" to="-5962129#1"/>
    <trip id="bus172" type="bus_bus" depart="2185.47" departLane="best" from="5962129#5" to="5955850#2"/>
    <trip id="bus173" type="bus_bus" depart="2198.17" departLane="best" departSpeed="max" from="436291021#0" to="5955850#2"/>
    <trip id="bus174" type="bus_bus" depart="2210.88" departLane="best" departSpeed="max" from="436291021#0" to="5955850#2"/>
    <trip id="bus175" type="bus_bus" depart="2223.59" departLane="best" departSpeed="max" from="-5955850#2" to="5962129#0"/>
    <trip id="bus176" type="bus_bus" depart="2236.29" departLane="best" departSpeed="max" from="89922370#0" to="436291016#10"/>
    <trip id="bus177" type="bus_bus" depart="2249.00" departLane="best" departSpeed="max" from="-5955850#2" to="436291020#0"/>
    <trip id="bus178" type="bus_bus" depart="2261.70" departLane="best" departSpeed="max" from="89922370#0" to="641705146#0"/>
    <trip id="bus179" type="bus_bus" depart="2274.41" departLane="best" departSpeed="max" from="-5955850#2" to="436291016#10"/>
    <trip id="bus180" type="bus_bus" depart="2287.12" departLane="best" from="436291016#3" to="5955850#2"/>
    <trip id="bus181" type="bus_bus" depart="2299.82" departLane="best" departSpeed="max" from="-5955850#2" to="436291010"/>
    <trip id="bus183" type="bus_bus" depart="2325.23" departLane="best" departSpeed="max" from="6024091#0" to="641705146#2"/>
    <trip id="bus184" type="bus_bus" depart="2337.94" departLane="best" from="-5962129#4" to="5955850#2"/>
    <trip id="bus186" type="bus_bus" depart="2363.35" departLane="best" departSpeed="max" from="6024091#0" to="-89927838#0"/>
    <trip id="bus187" type="bus_bus" depart="2376.06" departLane="best" departSpeed="max" from="89927838#0" to="5955850#2"/>
    <trip id="bus188" type="bus_bus" depart="2388.77" departLane="best" departSpeed="max" from="89922370#0" to="436291016#10"/>
    <trip id="bus189" type="bus_bus" depart="2401.47" departLane="best" departSpeed="max" from="89922370#0" to="641705064#1"/>
    <trip id="bus190" type="bus_bus" depart="2414.18" departLane="best" from="436291031" to="5955850#2"/>
    <trip id="bus191" type="bus_bus" depart="2426.88" departLane="best" departSpeed="max" from="573865733#0" to="5955850#2"/>
    <trip id="bus192" type="bus_bus" depart="2439.59" departLane="best" departSpeed="max" from="-5955850#2" to="641705063#0"/>
    <trip id="bus193" type="bus_bus" depart="2452.30" departLane="best" departSpeed="max" from="-5955850#2" to="436291016#10"/>
    <trip id="bus194" type="bus_bus" depart="2465.00" departLane="best" departSpeed="max" from="-5955850#2" to="-419814433#0"/>
    <trip id="bus195" type="bus_bus" depart="2477.71" departLane="best" departSpeed="max" from="-5955850#2" to="593766965"/>
    <trip id="bus196" type="bus_bus" depart="2490.42" departLane="best" departSpeed="max" from="-5955850#2" to="5962129#3"/>
    <trip id="bus197" type="bus_bus" depart="2503.12" departLane="best" departSpeed="max" from="419814433#0" to="5955850#2"/>
    <trip id="bus198" type="bus_bus" depart="2515.83" departLane="best" departSpeed="max" from="-5955850#2" to="-89927838#0"/>
    <trip id="bus199" type="bus_bus" depart="2528.53" departLane="best" departSpeed="max" from="-5955850#2" to="36054466#1"/>
    <trip id="bus200" type="bus_bus" depart="2541.24" departLane="best" departSpeed="max" from="-5955850#2" to="234953562"/>
    <trip id="bus201" type="bus_bus" depart="2553.95" departLane="best" departSpeed="max" from="-5955850#2" to="436291018"/>
    <trip id="bus202" type="bus_bus" depart="2566.65" departLane="best" departSpeed="max" from="-5955850#2" to="593766962#0"/>
    <trip id="bus203" type="bus_bus" depart="2579.36" departLane="best" from="-641705065" to="5955850#2"/>
    <trip id="bus204" type="bus_bus" depart="2592.07" departLane="best" departSpeed="max" from="-5955850#2" to="-419814433#0"/>
    <trip id="bus205" type="bus_bus" depart="2604.77" departLane="best" from="36054466#6" to="5955850#2"/>
    <trip id="bus206" type="bus_bus" depart="2617.48" departLane="best" from="419814433#1" to="5955850#2"/>
    <trip id="bus207" type="bus_bus" depart="2630.18" departLane="best" departSpeed="max" from="6024091#0" to="641705146#2"/>
    <trip id="bus209" type="bus_bus" depart="2655.60" departLane="best" from="436291064#0" to="5955850#2"/>
    <trip id="bus210" type="bus_bus" depart="2668.30" departLane="best" departSpeed="max" from="6024091#0" to="-89927838#0"/>
    <trip id="bus211" type="bus_bus" depart="2681.01" departLane="best" departSpeed="max" from="89922370#0" to="436291016#4"/>
    <trip id="bus212" type="bus_bus" depart="2693.71" departLane="best" departSpeed="max" from="89922370#0" to="641705064#1"/>
    <trip id="bus213" type="bus_bus" depart="2706.42" departLane="best" departSpeed="max" from="89922370#0" to="436291010"/>
    <trip id="bus214" type="bus_bus" depart="2719.13" departLane="best" departSpeed="max" from="89922370#0" to="436291064#1"/>
    <trip id="bus215" type="bus_bus" depart="2731.83" departLane="best" departSpeed="max" from="-5955850#2" to="-593766963"/>
    <trip id="bus216" type="bus_bus" depart="2744.54" departLane="best" departSpeed="max" from="573865733#0" to="5955850#2"/>
    <trip id="bus217" type="bus_bus" depart="2757.25" departLane="best" from="89927838#3" to="5955850#2"/>
    <trip id="bus218" type="bus_bus" depart="2769.95" departLane="best" departSpeed="max" from="89922370#0" to="5955850#2"/>
    <trip id="bus219" type="bus_bus" depart="2782.66" departLane="best" departSpeed="max" from="89927838#0" to="5955850#2"/>
    <trip id="bus220" type="bus_bus" depart="2795.36" departLane="best" from="436291018" to="5955850#2"/>
    <trip id="bus222" type="bus_bus" depart="2820.78" departLane="best" from="436291016#1" to="5955850#2"/>
    <trip id="bus223" type="bus_bus" depart="2833.48" departLane="best" departSpeed="max" from="89922370#0" to="5955850#2"/>
    <trip id="bus224" type="bus_bus" depart="2846.19" departLane="best" departSpeed="max" from="-5955850#2" to="641705146#0"/>
    <trip id="bus225" type="bus_bus" depart="2858.90" departLane="best" departSpeed="max" from="573865733#0" to="593766962#0"/>
    <trip id="bus227" type="bus_bus" depart="2884.31" departLane="best" departSpeed="max" from="-5955850#2" to="593766962#0"/>
    <trip id="bus228" type="bus_bus" depart="2897.01" departLane="best" departSpeed="max" from="-5955850#2" to="36054466#10"/>
    <trip id="bus230" type="bus_bus" depart="2922.43" departLane="best" from="36054466#9" to="5955850#2"/>
    <trip id="bus231" type="bus_bus" depart="2935.13" departLane="best" departSpeed="max" from="89922370#0" to="436291031"/>
    <trip id="bus232" type="bus_bus" depart="2947.84" departLane="best" departSpeed="max" from="-5955850#2" to="593766963"/>
    <trip id="bus233" type="bus_bus" depart="2960.55" departLane="best" departSpeed="max" from="6024091#0" to="642751754#1"/>
    <trip id="bus234" type="bus_bus" depart="2973.25" departLane="best" from="641705065" to="5955850#2"/>
    <trip id="bus235" type="bus_bus" depart="2985.96" departLane="best" departSpeed="max" from="-5955850#2" to="-593766965"/>
    <trip id="bus236" type="bus_bus" depart="2998.66" departLane="best" departSpeed="max" from="-5955850#2" to="-5962129#4"/>
    <trip id="bus238" type="bus_bus" depart="3024.08" departLane="best" departSpeed="max" from="-5955850#2" to="-419814433#4"/>
    <trip id="bus239" type="bus_bus" depart="3036.78" departLane="best" from="-419814433#2" to="5955850#2"/>
    <trip id="bus240" type="bus_bus" depart="3049.49" departLane="best" departSpeed="max" from="-5955850#2" to="436291016#6"/>
    <trip id="bus241" type="bus_bus" depart="3062.19" departLane="best" departSpeed="max" from="-5955850#2" to="436291029"/>
    <trip id="bus242" type="bus_bus" depart="3074.90" departLane="best" departSpeed="max" from="419814433#0" to="5955850#2"/>
    <trip id="bus243" type="bus_bus" depart="3087.61" departLane="best" departSpeed="max" from="-5955850#2" to="36054466#8"/>
    <trip id="bus244" type="bus_bus" depart="3100.31" departLane="best" departSpeed="max" from="-5955850#2" to="-89927838#0"/>
    <trip id="bus245" type="bus_bus" depart="3113.02" departLane="best" departSpeed="max" from="-5955850#2" to="-89927838#3"/>
    <trip id="bus246" type="bus_bus" depart="3125.73" departLane="best" departSpeed="max" from="436291021#0" to="641705146#2"/>
    <trip id="bus247" type="bus_bus" depart="3138.43" departLane="best" departSpeed="max" from="-5955850#2" to="641705065"/>
    <trip id="bus248" type="bus_bus" depart="3151.14" departLane="best" departSpeed="max" from="-5955850#2" to="634644489"/>
    <trip id="bus249" type="bus_bus" depart="3163.84" departLane="best" departSpeed="max" from="89922370#0" to="5955850#2"/>
    <trip id="bus250" type="bus_bus" depart="3176.55" departLane="best" departSpeed="max" from="-5955850#2" to="436291016#10"/>
    <trip id="bus251" type="bus_bus" depart="3189.26" departLane="best" from="36054466#3" to="5955850#2"/>
    <trip id="bus252" type="bus_bus" depart="3201.96" departLane="best" departSpeed="max" from="-5955850#2" to="436291016#6"/>
    <trip id="bus253" type="bus_bus" depart="3214.67" departLane="best" departSpeed="max" from="-5955850#2" to="234953562"/>
    <trip id="bus254" type="bus_bus" depart="3227.38" departLane="best" departSpeed="max" from="573865733#0" to="36054466#10"/>
    <trip id="bus255" type="bus_bus" depart="3240.08" departLane="best" departSpeed="max" from="89922370#0" to="-419814433#2"/>
    <trip id="bus257" type="bus_bus" depart="3265.49" departLane="best" departSpeed="max" from="-5955850#2" to="5962129#2"/>
    <trip id="bus259" type="bus_bus" depart="3290.91" departLane="best" departSpeed="max" from="-5955850#2" to="436291062"/>
    <trip id="bus260" type="bus_bus" depart="3303.61" departLane="best" from="593766960" to="5955850#2"/>