<?xml version="1.0" encoding="UTF-8"?>

<!-- generated on Thu Jul 11 16:06:59 2019 by Eclipse SUMO polyconvert Version 1.2.0
<configuration xmlns:xsi="http://www.w3.org/2001/XMLSchema-instance" xsi:noNamespaceSchemaLocation="http://sumo.dlr.de/xsd/polyconvertConfiguration.xsd">

    <input>
        <net-file value="osm.net.xml"/>
        <osm-files value="osm_bbox.osm.xml"/>
        <osm.keep-full-type value="true"/>
        <type-file value="/usr/share/sumo/data/typemap/osmPolyconvert.typ.xml"/>
    </input>

    <output>
        <output-file value="osm.poly.xml"/>
    </output>

    <processing>
        <poi-layer-offset value="5"/>
    </processing>

    <report>
        <verbose value="true"/>
    </report>

</configuration>
-->

<additional xmlns:xsi="http://www.w3.org/2001/XMLSchema-instance" xsi:noNamespaceSchemaLocation="http://sumo.dlr.de/xsd/additional_file.xsd">
    <location netOffset="-483980.02,-3619901.67" convBoundary="0.00,0.00,1348.00,695.31" origBoundary="-117.170955,32.716778,-117.156568,32.723050" projParameter="+proj=utm +zone=11 +ellps=WGS84 +datum=WGS84 +units=m +no_defs"/>

    <poly id="132579336" type="amenity.parking" color="184,184,179" fill="1" layer="-1.00" shape="675.336218,529.664295 675.381613,468.061766 740.734417,468.105132 740.708903,500.253294 702.419437,500.223584 702.389893,529.677964 675.336218,529.664295"/>
    <poly id="132579340" type="building.yes" color="255,230,230" fill="1" layer="-1.00" shape="703.702152,529.897652 703.829168,502.881945 734.622110,503.034050 734.485638,530.049770 703.702152,529.897652"/>
    <poly id="132579344" type="amenity.parking" color="184,184,179" fill="1" layer="-1.00" shape="824.178120,330.560547 825.723332,238.004876 766.205787,237.020793 764.661146,329.587561 824.178120,330.560547"/>
    <poly id="184107597" type="amenity.parking" color="184,184,179" fill="1" layer="-1.00" shape="935.613424,271.659424 935.559902,285.782503 966.278473,285.891100 966.226151,300.834508 996.597963,300.954809 996.671469,281.399779 996.711584,270.746500 965.983596,270.637823 966.105605,239.841967 963.659713,239.823503 963.553883,268.923244 958.053027,268.909413 958.038588,271.747337 935.613424,271.659424"/>
    <poly id="184109371" type="amenity.parking_space" color="237,199,199" fill="1" layer="-1.00" shape="900.574753,154.582725 900.526263,165.823551 903.525073,165.841158 903.582954,154.611404 900.574753,154.582725"/>
    <poly id="184115402" type="building.apartments" color="255,230,230" fill="1" layer="-1.00" shape="935.377769,363.315158 965.786993,363.512907 965.848907,354.899336 935.430269,354.690516 935.377769,363.315158"/>
    <poly id="184115402#1" type="historic.building" color="128,255,128" fill="1" layer="-1.00" shape="935.377769,363.315158 965.786993,363.512907 965.848907,354.899336 935.430269,354.690516 935.377769,363.315158"/>
    <poly id="184694494" type="amenity.parking" color="184,184,179" fill="1" layer="-1.00" shape="965.733157,371.272878 965.596279,386.072304 965.546694,396.636915 972.987300,396.669983 985.253999,396.729007 985.323052,386.629960 983.626873,386.610356 983.655849,380.989935 986.186028,380.997191 986.240014,373.325904 985.162335,373.316450 985.178174,371.398624 971.777522,371.319147 971.893266,354.934519 968.819546,354.917005 965.848907,354.899336 965.733157,371.272878"/>
    <poly id="184696201" type="building.yes" color="255,230,230" fill="1" layer="-1.00" shape="910.331967,315.940300 910.259672,330.019067 881.359163,329.874616 881.431366,315.762593 910.331967,315.940300"/>
    <poly id="184708325" type="amenity.parking" color="184,184,179" fill="1" layer="-1.00" shape="826.749483,118.534287 826.424914,182.043922 826.409699,184.349741 755.965982,183.981055 746.154295,183.940709 746.493548,118.125251 826.749483,118.534287"/>
    <poly id="184708328" type="amenity.parking" color="184,184,179" fill="1" layer="-1.00" shape="679.834601,196.170500 684.107895,196.197158 684.084744,199.412005 688.123758,199.439027 735.917166,199.742285 740.874569,199.779001 740.905642,195.610785 745.497555,195.636979 745.626541,175.915579 745.838360,143.024413 741.358861,142.986959 741.609648,123.254287 680.002205,122.650841 680.092173,144.500330 680.122607,152.071717 680.001444,170.706722 679.834601,196.170500"/>
    <poly id="184708328#1" type="building.yes" color="255,230,230" fill="1" layer="-1.00" shape="679.834601,196.170500 684.107895,196.197158 684.084744,199.412005 688.123758,199.439027 735.917166,199.742285 740.874569,199.779001 740.905642,195.610785 745.497555,195.636979 745.626541,175.915579 745.838360,143.024413 741.358861,142.986959 741.609648,123.254287 680.002205,122.650841 680.092173,144.500330 680.122607,152.071717 680.001444,170.706722 679.834601,196.170500"/>
    <poly id="184711465" type="amenity.parking" color="184,184,179" fill="1" layer="-1.00" shape="911.127755,192.224295 911.316214,174.420609 911.520498,154.699098 903.582954,154.611404 900.574753,154.582725 881.700850,154.389759 849.444639,154.050973 849.280460,169.271689 849.134042,183.849416 881.230846,184.188444 881.148893,191.904114 911.127755,192.224295"/>
    <poly id="259493647" type="amenity.pub" color="237,199,199" fill="1" layer="-1.00" shape="749.168399,181.718964 749.105112,158.838476 751.925838,158.834141 757.773369,158.769727 757.882614,168.879585 761.462351,168.840829 768.790607,168.829575 768.829058,181.666589 749.168399,181.718964"/>
    <poly id="259493647#1" type="building.yes" color="255,230,230" fill="1" layer="-1.00" shape="749.168399,181.718964 749.105112,158.838476 751.925838,158.834141 757.773369,158.769727 757.882614,168.879585 761.462351,168.840829 768.790607,168.829575 768.829058,181.666589 749.168399,181.718964"/>
    <poly id="31523860" type="amenity.university" color="237,199,199" fill="1" layer="-1.00" shape="757.143140,632.922192 798.962260,631.250610 852.841134,623.164411 912.354719,623.073708 913.905622,583.052475 831.058554,583.178823 830.981438,532.750726 756.988137,532.054909 757.143140,632.922192"/>
    <poly id="31806606" type="building.yes" color="255,230,230" fill="1" layer="-1.00" shape="880.602297,269.825313 878.690598,269.828226 878.666980,272.777020 878.592532,285.414667 880.935331,285.433267 880.820277,302.172632 880.812562,303.259028 880.737893,315.752564 881.431366,315.762593 910.331967,315.940300 911.409652,315.949747 911.484394,303.478382 911.672556,273.159102 911.672320,273.003904 911.180792,270.222177 881.052481,270.068509 880.602297,269.825313"/>
    <poly id="31806731" type="building.yes" color="255,230,230" fill="1" layer="-1.00" shape="996.163885,329.944194 993.918194,332.164702 966.235002,331.408457 966.226151,300.834508 996.597963,300.954809 996.163885,329.944194"/>
    <poly id="31806739" type="building.yes" color="255,230,230" fill="1" layer="-1.00" shape="911.561942,151.140573 911.839914,124.412881 882.104515,124.103412 881.700850,154.389759 900.574753,154.582725 903.582954,154.611404 911.520498,154.699098 911.561942,151.140573"/>
    <poly id="31806750" type="building.yes" color="255,230,230" fill="1" layer="-1.00" shape="514.820551,354.096584 513.293078,354.098968 513.285949,361.537389 513.293140,384.151919 543.393263,384.470798 543.899084,354.261861 514.820551,354.096584"/>
    <poly id="31806942" type="building.yes" color="255,230,230" fill="1" layer="-1.00" shape="707.606131,545.755070 707.546277,531.244163 696.348187,531.294690 689.779304,531.349168 689.895050,545.627192 689.947971,561.701174 696.132700,561.691630 707.574499,561.707241 707.606131,545.755070"/>
    <poly id="31807052" type="building.yes" color="255,230,230" fill="1" layer="-1.00" shape="881.148893,191.904114 880.951946,210.251007 880.902730,214.851587 910.890878,215.160667 911.127755,192.224295 881.148893,191.904114"/>
    <poly id="31807393" type="building.yes" color="255,230,230" fill="1" layer="-1.00" shape="813.282843,136.790628 811.002654,134.843062 788.267452,134.445559 767.866154,134.354921 766.135256,136.164524 766.023200,166.938195 767.749998,168.565120 788.188421,168.467246 810.838594,168.465798 812.747275,166.478562 813.282843,136.790628"/>
    <poly id="31807507" type="building.yes" color="255,230,230" fill="1" layer="-1.00" shape="962.994430,511.875158 964.012022,472.253829 933.667852,471.479540 932.650381,511.100873 962.994430,511.875158"/>
    <poly id="31807747" type="building.yes" color="255,230,230" fill="1" layer="-1.00" shape="513.293140,384.151919 513.494897,399.338821 543.717574,400.156359 543.393263,384.470798 513.293140,384.151919"/>
    <poly id="31807911" type="building.yes" color="255,230,230" fill="1" layer="-1.00" shape="989.182385,472.326564 971.321244,472.198411 971.221425,486.720643 971.205118,488.328074 978.584253,497.318370 995.209132,497.936171 995.286139,486.894838 995.339914,479.079438 989.182385,472.326564"/>
    <poly id="31808162" type="building.commercial" color="255,230,230" fill="1" layer="-1.00" shape="789.395968,485.401468 789.625813,470.291498 788.201472,470.315853 762.685296,470.842780 762.585543,485.209818 762.468871,500.763037 787.977061,501.189480 789.148453,501.209855 789.395968,485.401468"/>
    <poly id="31808418" type="building.yes" color="255,230,230" fill="1" layer="-1.00" shape="568.109175,483.814364 568.201500,470.877371 544.446612,471.113894 544.193598,471.114288 544.100665,483.641116 544.093332,484.949224 544.346346,484.948830 568.102460,485.521551 568.109175,483.814364"/>
    <poly id="31808450" type="building.yes" color="255,230,230" fill="1" layer="-1.00" shape="739.467256,424.108497 739.506223,400.706823 727.764334,400.669465 697.299144,400.572303 678.660182,400.512388 678.367966,423.670572 678.092285,445.398694 696.975047,445.613429 727.440474,445.954472 739.426107,446.091224 739.467256,424.108497"/>
    <poly id="31808713" type="amenity.events_venue" color="237,199,199" fill="1" layer="-1.00" shape="911.332346,240.479403 881.063379,240.325947 880.602297,269.825313 881.052481,270.068509 911.180792,270.222177 911.332346,240.479403"/>
    <poly id="31808713#1" type="building.yes" color="255,230,230" fill="1" layer="-1.00" shape="911.332346,240.479403 881.063379,240.325947 880.602297,269.825313 881.052481,270.068509 911.180792,270.222177 911.332346,240.479403"/>
    <poly id="31808731" type="building.yes" color="255,230,230" fill="1" layer="-1.00" shape="597.093358,248.433991 596.842419,292.022791 608.331471,292.093643 632.826500,291.468135 633.009691,258.488319 633.069411,248.644252 597.093358,248.433991"/>
    <poly id="31808742" type="building.yes" color="255,230,230" fill="1" layer="-1.00" shape="543.300802,415.344225 543.717574,400.156359 513.494897,399.338821 513.078155,414.515603 543.300802,415.344225"/>
    <poly id="31808750" type="building.yes" color="255,230,230" fill="1" layer="-1.00" shape="568.124352,415.261236 567.952413,401.116329 543.717574,400.156359 543.300802,415.344225 568.124352,415.261236"/>
    <poly id="31809151" type="building.yes" color="255,230,230" fill="1" layer="-1.00" shape="966.035515,255.428363 965.983596,270.637823 996.711584,270.746500 996.922808,255.503543 966.035515,255.428363"/>
    <poly id="31809258" type="building.yes" color="255,230,230" fill="1" layer="-1.00" shape="878.690598,269.828226 880.602297,269.825313 880.569734,242.311014 880.566085,239.916540 850.794071,239.950874 850.231805,239.951732 850.235089,242.102325 850.268108,269.860506 850.586725,269.860019 878.690598,269.828226"/>
    <poly id="31809277" type="building.yes" color="255,230,230" fill="1" layer="-1.00" shape="566.783621,499.147757 567.651513,490.810065 565.618017,490.802143 565.625163,489.372094 553.424118,489.280230 553.195232,492.739281 551.770843,492.730414 551.731602,497.619208 555.799074,497.945441 566.783621,499.147757"/>
    <poly id="31809455" type="building.yes" color="255,230,230" fill="1" layer="-1.00" shape="539.813036,203.748527 540.186688,178.927384 540.211951,177.098228 516.100153,177.268857 511.527059,177.298167 511.519903,178.717129 511.372675,198.460735 515.945586,198.320570 522.364543,198.133185 522.325937,203.421055 526.393063,203.447968 526.431983,198.359637 534.163281,198.414094 534.124686,203.713051 539.813036,203.748527"/>
    <poly id="31809753" type="building.yes" color="255,230,230" fill="1" layer="-1.00" shape="594.884145,123.226068 595.225454,180.083351 654.573430,180.257428 654.563270,179.747508 654.220970,152.322374 654.232855,123.655111 594.884145,123.226068"/>
    <poly id="31809760" type="building.yes" color="255,230,230" fill="1" layer="-1.00" shape="882.020174,124.103540 851.628788,123.795162 849.763883,123.775838 849.444639,154.050973 881.700850,154.389759 882.020174,124.103540"/>
    <poly id="31809772" type="building.yes" color="255,230,230" fill="1" layer="-1.00" shape="543.899084,354.261861 543.393263,384.470798 568.358230,384.886439 568.864128,354.677504 543.899084,354.261861"/>
    <poly id="31810030" type="building.yes" color="255,230,230" fill="1" layer="-1.00" shape="995.420790,210.387609 995.456575,184.480616 973.068800,184.459074 942.603239,184.549611 937.683365,184.545994 937.637939,210.175863 942.417250,210.190779 972.883135,210.366295 995.420790,210.387609"/>
    <poly id="31810055" type="amenity.school" color="237,199,199" fill="1" layer="-1.00" shape="795.807039,205.048983 790.277949,204.979860 790.518407,184.559899 766.359072,184.275486 765.993537,214.750238 781.690499,214.936772 795.691253,215.103759 795.807039,205.048983"/>
    <poly id="31810055#1" type="building.school" color="255,230,230" fill="1" layer="-1.00" shape="795.807039,205.048983 790.277949,204.979860 790.518407,184.559899 766.359072,184.275486 765.993537,214.750238 781.690499,214.936772 795.691253,215.103759 795.807039,205.048983"/>
    <poly id="31810359" type="building.yes" color="255,230,230" fill="1" layer="-1.00" shape="793.725085,546.376496 793.168873,531.977205 787.752551,531.996596 765.618705,532.063821 765.518557,546.175893 765.450002,556.452314 787.574781,556.617898 790.985805,556.645924 790.961653,559.228897 798.430285,559.283962 798.201998,550.959056 793.891357,550.921320 793.725085,546.376496"/>
    <poly id="31810445" type="building.yes" color="255,230,230" fill="1" layer="-1.00" shape="966.226151,300.834508 966.278473,285.891100 935.559902,285.782503 935.702998,293.619773 935.686669,319.892565 935.685384,331.388289 966.235002,331.408457 966.226151,300.834508"/>
    <poly id="31816920" type="building.yes" color="255,230,230" fill="1" layer="-1.00" shape="783.063420,376.861390 766.860782,376.742145 766.798837,385.222692 788.811834,385.576907 793.722357,385.658063 793.777639,378.929045 788.857810,378.892246 783.057110,378.856800 783.063420,376.861390"/>
    <poly id="31817806" type="building.yes" color="255,230,230" fill="1" layer="-1.00" shape="894.155577,400.813772 887.717733,400.823577 887.727494,407.231015 894.165334,407.221209 910.359290,407.828439 910.534185,405.755174 910.911682,401.342548 910.564957,401.343075 894.155577,400.813772"/>
    <poly id="31818191" type="building.yes" color="255,230,230" fill="1" layer="-1.00" shape="644.710404,298.411463 608.302707,297.714066 608.133285,327.434709 651.193630,327.689473 651.363918,298.445509 644.710404,298.411463"/>
    <poly id="31819420" type="building.yes" color="255,230,230" fill="1" layer="-1.00" shape="535.464297,257.520255 535.177923,326.295503 566.196270,326.413480 566.482876,257.649320 535.464297,257.520255"/>
    <poly id="31819567" type="building.yes" color="255,230,230" fill="1" layer="-1.00" shape="568.124352,415.261236 543.300802,415.344225 543.485852,437.880880 568.019106,437.964626 568.124352,415.261236"/>
    <poly id="31819698" type="amenity.school" color="237,199,199" fill="1" layer="-1.00" shape="965.733157,371.272878 971.777522,371.319147 985.178174,371.398624 985.162335,373.316450 986.240014,373.325904 986.186028,380.997191 983.655849,380.989935 983.626873,386.610356 985.323052,386.629960 985.253999,396.729007 995.683889,396.724311 995.742035,373.211757 995.780791,367.857375 995.864556,355.086687 971.893266,354.934519 968.819546,354.917005 965.848907,354.899336 965.786993,363.512907 965.733157,371.272878"/>
    <poly id="31819698#1" type="building.yes" color="255,230,230" fill="1" layer="-1.00" shape="965.733157,371.272878 971.777522,371.319147 985.178174,371.398624 985.162335,373.316450 986.240014,373.325904 986.186028,380.997191 983.655849,380.989935 983.626873,386.610356 985.323052,386.629960 985.253999,396.729007 995.683889,396.724311 995.742035,373.211757 995.780791,367.857375 995.864556,355.086687 971.893266,354.934519 968.819546,354.917005 965.848907,354.899336 965.786993,363.512907 965.733157,371.272878"/>
    <poly id="31819802" type="building.yes" color="255,230,230" fill="1" layer="-1.00" shape="966.199333,239.852910 966.110030,255.128940 996.941232,255.292889 997.030582,240.016860 966.199333,239.852910"/>
    <poly id="31840789" type="building.yes" color="255,230,230" fill="1" layer="-1.00" shape="964.690451,548.898355 964.971516,517.947048 949.706163,517.803914 949.673221,520.797065 939.252680,520.702026 939.220111,523.939058 934.009842,523.891543 933.656963,563.024104 964.552974,563.298705 964.624121,554.596433 964.690451,548.898355"/>
    <poly id="31842099" type="building.yes" color="255,230,230" fill="1" layer="-1.00" shape="818.171358,538.789783 817.224854,538.757975 817.489795,546.550719 817.705115,552.536592 818.070576,552.536032 824.583374,552.581494 824.761632,546.595019 824.965696,539.100868 818.171358,538.789783"/>
    <poly id="31842315" type="amenity.courthouse" color="237,199,199" fill="1" layer="-1.00" shape="965.786993,363.512907 965.733157,371.272878 965.596279,386.072304 935.524598,385.951642 935.539367,383.335429 933.271559,383.316702 933.301769,378.527695 935.279061,378.535778 935.377769,363.315158 965.786993,363.512907"/>
    <poly id="31842315#1" type="building.yes" color="255,230,230" fill="1" layer="-1.00" shape="965.786993,363.512907 965.733157,371.272878 965.596279,386.072304 935.524598,385.951642 935.539367,383.335429 933.271559,383.316702 933.301769,378.527695 935.279061,378.535778 935.377769,363.315158 965.786993,363.512907"/>
    <poly id="31844064" type="building.yes" color="255,230,230" fill="1" layer="-1.00" shape="973.494885,125.483286 966.625703,125.438265 966.440339,151.533938 966.300905,170.834097 973.170072,170.890203 991.359745,171.017865 991.396145,151.717862 991.440990,125.611318 973.494885,125.483286"/>
    <poly id="31845913" type="building.yes" color="255,230,230" fill="1" layer="-1.00" shape="793.800790,375.692027 794.260120,363.563723 794.413174,359.484003 788.996792,359.525563 777.957883,359.620095 777.964566,357.868567 771.732771,357.822703 771.977948,358.820027 766.739495,358.783728 766.999560,363.372749 767.182443,366.520767 771.174533,366.547894 771.150624,369.286064 777.390643,368.589182 777.902611,366.349113 783.394077,366.385030 784.081812,374.875513 788.880381,375.278319 793.800790,375.692027"/>
    <poly id="31845994" type="building.yes" color="255,230,230" fill="1" layer="-1.00" shape="811.247914,184.860707 811.241882,199.283022 795.751349,199.284580 795.807039,205.048983 795.691253,215.103759 804.790160,214.790508 816.935175,214.794084 823.682404,214.794846 826.568729,214.801516 826.578881,196.931586 826.579436,191.167097 826.579176,184.870502 811.247914,184.860707"/>
    <poly id="31845994#1" type="historic.building" color="128,255,128" fill="1" layer="-1.00" shape="811.247914,184.860707 811.241882,199.283022 795.751349,199.284580 795.807039,205.048983 795.691253,215.103759 804.790160,214.790508 816.935175,214.794084 823.682404,214.794846 826.568729,214.801516 826.578881,196.931586 826.579436,191.167097 826.579176,184.870502 811.247914,184.860707"/>
    <poly id="31846085" type="building.yes" color="255,230,230" fill="1" layer="-1.00" shape="965.784881,257.002891 963.638868,256.983973 963.714024,238.559667 935.600474,238.447121 935.613424,271.659424 958.038588,271.747337 958.053027,268.909413 963.553883,268.923244 963.477217,267.803719 965.745051,267.822453 965.784881,257.002891"/>
    <poly id="31846124" type="building.yes" color="255,230,230" fill="1" layer="-1.00" shape="879.927948,331.550716 879.915388,317.161683 850.237315,317.195877 848.869128,317.186881 848.881733,331.575914 850.137450,331.573996 879.927948,331.550716"/>
    <poly id="31846127" type="building.yes" color="255,230,230" fill="1" layer="-1.00" shape="880.951946,210.251007 881.148893,191.904114 881.230846,184.188444 849.134042,183.849416 848.790111,216.363873 875.573280,216.644485 875.638429,210.203679 880.951946,210.251007"/>
    <poly id="31846128" type="building.yes" color="255,230,230" fill="1" layer="-1.00" shape="536.559353,148.425587 536.597121,142.594526 516.345929,142.603941 511.369824,142.611708 511.331759,148.243230 511.232260,162.543752 516.199002,162.547085 536.459506,162.526570 536.559353,148.425587"/>
    <poly id="31846200" type="building.yes" color="255,230,230" fill="1" layer="-1.00" shape="697.407389,385.695316 678.524633,385.558179 678.658270,393.207008 678.699349,395.534912 697.329292,395.816551 708.874619,395.998288 708.823783,393.415431 708.690170,385.766602 697.407389,385.695316"/>
    <poly id="32263547" type="building.yes" color="255,230,230" fill="1" layer="-1.00" shape="826.519999,354.490682 795.961181,354.537472 796.022533,394.567326 804.868718,394.553772 804.829476,368.935108 826.542042,368.901873 826.519999,354.490682"/>
    <poly id="32263555" type="building.yes" color="255,230,230" fill="1" layer="-1.00" shape="769.554484,446.632455 790.470354,446.600363 790.397947,399.375995 769.481978,399.408086 769.554484,446.632455"/>
    <poly id="32263573" type="building.yes" color="255,230,230" fill="1" layer="-1.00" shape="883.712240,410.440859 883.732968,424.042807 913.495042,423.997498 913.474355,410.395550 883.712240,410.440859"/>
    <poly id="32263598" type="amenity.parking" color="184,184,179" fill="1" layer="-1.00" shape="911.778534,355.158798 849.039721,355.254422 848.385028,448.119140 911.113883,448.023524 911.884473,424.809193 913.495042,423.997498 883.732968,424.042807 883.712240,410.440859 887.727494,407.231015 887.717733,400.823577 910.564957,401.343075 911.847935,400.786846 911.829674,388.781215 911.778534,355.158798"/>
    <poly id="32263613" type="building.yes" color="255,230,230" fill="1" layer="-1.00" shape="849.286700,516.959084 849.350279,558.585265 851.772839,561.785292 864.638948,561.765652 868.652917,557.757641 868.590636,516.929619 865.366661,510.527084 853.306379,510.545492 849.286700,516.959084"/>
    <poly id="32263623" type="building.yes" color="255,230,230" fill="1" layer="-1.00" shape="874.223730,517.719188 874.195652,499.306117 897.529885,499.791584 910.396495,500.049142 910.423292,517.664054 874.223730,517.719188"/>
    <poly id="32263631" type="amenity.place_of_worship" color="237,199,199" fill="1" layer="-1.00" shape="852.447924,476.126142 852.461060,484.728515 852.476041,494.539212 897.512413,494.470542 897.529885,499.791584 910.396495,500.049142 910.352667,471.237841 897.477071,471.257436 897.484379,476.057472 890.250058,476.068488 890.245178,472.864769 876.573058,472.885605 876.577943,476.089324 860.488140,476.113867 860.483250,472.910148 852.443032,472.922423 852.447924,476.126142"/>
    <poly id="32263631#1" type="building.church" color="255,230,230" fill="1" layer="-1.00" shape="852.447924,476.126142 852.461060,484.728515 852.476041,494.539212 897.512413,494.470542 897.529885,499.791584 910.396495,500.049142 910.352667,471.237841 897.477071,471.257436 897.484379,476.057472 890.250058,476.068488 890.245178,472.864769 876.573058,472.885605 876.577943,476.089324 860.488140,476.113867 860.483250,472.910148 852.443032,472.922423 852.447924,476.126142"/>
    <poly id="411355136" type="amenity.parking" color="184,184,179" fill="1" layer="-1.00" shape="709.588389,178.143826 706.907827,177.881905 704.141129,176.456134 702.376239,174.441284 701.407162,171.948528 701.264321,170.474370 701.719440,167.835306 703.084025,165.494150 705.152422,163.783785 706.894333,163.049453 709.564709,162.779284 712.874306,163.794054 714.938629,165.520220 716.593301,168.987450 716.644273,171.658990 715.599057,174.487417 713.821627,176.496641 711.452687,177.775130 709.588389,178.143826"/>
    <poly id="411355136#1" type="building.yes" color="255,230,230" fill="1" layer="-1.00" shape="709.588389,178.143826 706.907827,177.881905 704.141129,176.456134 702.376239,174.441284 701.407162,171.948528 701.264321,170.474370 701.719440,167.835306 703.084025,165.494150 705.152422,163.783785 706.894333,163.049453 709.564709,162.779284 712.874306,163.794054 714.938629,165.520220 716.593301,168.987450 716.644273,171.658990 715.599057,174.487417 713.821627,176.496641 711.452687,177.775130 709.588389,178.143826"/>
    <poly id="411355139" type="building.yes" color="255,230,230" fill="1" layer="-1.00" shape="603.749731,540.106889 603.868896,532.357897 608.141994,532.351266 609.517941,531.340345 611.410848,531.337408 612.284468,532.710662 615.929720,532.705008 617.183675,531.583422 618.570953,531.836239 618.198630,533.455308 624.608087,533.323430 624.727004,531.449786 626.236085,531.691329 626.996875,532.820877 631.391983,532.936008 632.523534,531.437704 634.032427,531.557308 634.784806,533.307661 639.057509,533.046076 640.565251,532.422950 640.693663,536.679607 637.928875,536.428920 637.931587,538.180434 636.676859,538.803169 636.679966,540.809651 624.619531,540.706396 623.234385,541.828185 623.371969,545.951800 622.116279,545.953747 621.724909,541.331675 620.721269,540.712439 603.749731,540.106889"/>
    <poly id="411355140" type="building.yes" color="255,230,230" fill="1" layer="-1.00" shape="602.686674,501.209305 610.736448,501.329841 610.990942,508.324435 613.130608,510.327602 615.264635,508.694715 619.669124,508.809826 620.795963,510.315715 622.435862,510.313173 623.689425,508.936620 628.842998,508.673665 630.981888,510.177987 632.984331,508.290339 633.358661,501.915562 640.639629,501.782344 641.253522,492.768833 629.568258,492.919959 627.682567,491.537186 625.799022,491.540105 625.916205,488.546822 616.367082,488.428600 616.623791,490.811597 615.115081,490.813937 612.728812,492.946066 609.335973,492.574420 607.571722,490.947580 607.576762,494.195642 605.814850,494.076435 605.189324,495.573956 602.425315,495.833214 602.686674,501.209305"/>
    <poly id="41283968" type="building.yes" color="255,230,230" fill="1" layer="-1.00" shape="653.897628,470.334262 653.028199,562.523130 590.439572,561.943943 591.299049,469.755081 653.897628,470.334262"/>
    <poly id="44500833" type="landuse.commercial" color="209,209,204" fill="1" layer="-3.00" shape="657.601949,120.712228 592.791110,121.134148 593.391965,212.356252 658.202209,211.934333 657.601949,120.712228"/>
    <poly id="44501247" type="landuse.commercial" color="209,209,204" fill="1" layer="-3.00" shape="572.760037,238.616741 517.263082,237.893952 516.602104,330.758702 571.301986,331.471638 572.760037,238.616741"/>
    <poly id="458904626" type="building.yes" color="255,230,230" fill="1" layer="-1.00" shape="511.060910,520.951222 511.172884,544.651978 511.586651,563.585472 567.642120,563.076854 567.246529,543.710993 567.135741,520.686454 511.060910,520.951222"/>
    <poly id="462184442" type="building.yes" color="255,230,230" fill="1" layer="-1.00" shape="591.713848,417.053685 621.878639,416.840594 621.758568,399.835532 591.603079,400.037523 591.713848,417.053685"/>
    <poly id="462184443" type="building.apartments" color="255,230,230" fill="1" layer="-1.00" shape="623.147782,443.643509 625.228125,443.640285 625.233692,447.231997 650.628787,447.148328 650.622835,443.301648 653.790204,443.296747 653.771126,437.022350 650.566289,437.038394 650.550640,432.981104 623.112630,433.056854 623.147782,443.643509"/>
    <poly id="462184444" type="building.apartments" color="255,230,230" fill="1" layer="-1.00" shape="624.303563,385.220820 624.205521,400.563386 654.071126,400.761022 654.178586,385.418442 624.303563,385.220820"/>
    <poly id="497520819" type="building.yes" color="255,230,230" fill="1" layer="-1.00" shape="528.917945,554.545864 528.874272,544.568927 511.172884,544.651978 511.060910,520.951222 567.135741,520.686454 567.246529,543.710993 550.819570,543.791991 550.864275,554.445147 528.917945,554.545864"/>
    <poly id="497520829" type="building.yes" color="255,230,230" fill="1" layer="-1.00" shape="545.745059,516.595928 545.818319,503.470509 567.277822,503.592298 567.195180,516.728816 545.745059,516.595928"/>
    <poly id="611726933" type="amenity.parking" color="184,184,179" fill="1" layer="-1.00" shape="591.146078,419.537732 620.608110,419.370071 620.773844,447.693419 591.321266,447.861065 591.146078,419.537732"/>
    <poly id="611726937" type="amenity.parking" color="184,184,179" fill="1" layer="-1.00" shape="738.220117,399.223337 738.377518,355.346456 677.128211,355.130478 677.022111,383.509671 709.848872,383.625303 709.797791,399.122993 738.220117,399.223337"/>
    <poly id="611726942" type="amenity.parking" color="184,184,179" fill="1" layer="-1.00" shape="540.044310,213.847108 569.882677,214.244077 570.394679,175.898342 540.556197,175.501371 540.044310,213.847108"/>
    <poly id="611726985" type="amenity.parking" color="184,184,179" fill="1" layer="-1.00" shape="591.030177,399.218082 590.887417,355.574458 653.429288,355.377738 653.519085,383.135837 622.829246,383.238790 622.881966,399.113229 591.030177,399.218082"/>
    <poly id="611726990" type="amenity.parking" color="184,184,179" fill="1" layer="-1.00" shape="763.316129,399.572753 763.074828,388.897731 790.868223,388.278631 791.109476,398.942567 763.316129,399.572753"/>
    <poly id="611727002" type="amenity.parking" color="184,184,179" fill="1" layer="-1.00" shape="511.469865,446.777094 511.830672,431.788853 540.244420,432.454007 539.883570,447.442247 511.469865,446.777094"/>
    <poly id="611727009" type="amenity.parking" color="184,184,179" fill="1" layer="-1.00" shape="823.736148,445.939708 824.326829,397.140177 793.158385,396.766657 792.577228,445.566176 823.736148,445.939708"/>