<?xml version="1.0" encoding="UTF-8"?>

<!-- generated on Wed Aug  7 15:30:38 2019 by Eclipse SUMO duarouter Version 1.2.0
<configuration xmlns:xsi="http://www.w3.org/2001/XMLSchema-instance" xsi:noNamespaceSchemaLocation="http://sumo.dlr.de/xsd/duarouterConfiguration.xsd">

    <input>
        <net-file value="osm.net.xml"/>
        <route-files value="osm.truck.trips.xml"/>
    </input>

    <output>
        <output-file value="osm.truck.trips.xml.tmp"/>
        <write-trips value="true"/>
    </output>

    <time>
        <begin value="0"/>
        <end value="3600.0"/>
    </time>

    <report>
        <no-warnings value="true"/>
        <ignore-errors value="true"/>
        <no-step-log value="true"/>
    </report>

</configuration>
-->

<routes xmlns:xsi="http://www.w3.org/2001/XMLSchema-instance" xsi:noNamespaceSchemaLocation="http://sumo.dlr.de/xsd/routes_file.xsd">
    <vType id="truck_truck" vClass="truck"/>
    <trip id="truck0" type="truck_truck" depart="0.00" departLane="best" departSpeed="max" from="6024091#0" to="5955850#2"/>
    <trip id="truck1" type="truck_truck" depart="16.94" departLane="best" from="641705064#0" to="5955850#2"/>
    <trip id="truck2" type="truck_truck" depart="33.88" departLane="best" from="436291064#1" to="5955850#2"/>
    <trip id="truck3" type="truck_truck" depart="50.82" departLane="best" departSpeed="max" from="89922370#0" to="436291016#7"/>
    <trip id="truck4" type="truck_truck" depart="67.77" departLane="best" departSpeed="max" from="-5955850#2" to="593766962#0"/>
    <trip id="truck5" type="truck_truck" depart="84.71" departLane="best" departSpeed="max" from="-5955850#2" to="436291016#3"/>
    <trip id="truck6" type="truck_truck" depart="101.65" departLane="best" departSpeed="max" from="89922370#0" to="641705146#2"/>
    <trip id="truck7" type="truck_truck" depart="118.59" departLane="best" departSpeed="max" from="-5955850#2" to="36054466#1"/>
    <trip id="truck8" type="truck_truck" depart="135.53" departLane="best" departSpeed="max" from="89922370#0" to="436291064#0"/>
    <trip id="truck9" type="truck_truck" depart="152.47" departLane="best" departSpeed="max" from="436291021#0" to="641705146#2"/>
    <trip id="truck10" type="truck_truck" depart="169.42" departLane="best" departSpeed="max" from="573865733#0" to="5955850#2"/>
    <trip id="truck11" type="truck_truck" depart="186.36" departLane="best" departSpeed="max" from="573865733#0" to="593766962#0"/>
    <trip id="truck13" type="truck_truck" depart="220.24" departLane="best" departSpeed="max" from="-5955850#2" to="-5962129#1"/>
    <trip id="truck14" type="truck_truck" depart="237.18" departLane="best" departSpeed="max" from="-5955850#2" to="436291031"/>
    <trip id="truck15" type="truck_truck" depart="254.12" departLane="best" departSpeed="max" from="89922370#0" to="-5962129#1"/>
    <trip id="truck16" type="truck_truck" depart="271.07" departLane="best" departSpeed="max" from="-5955850#2" to="436291016#3"/>
    <trip id="truck17" type="truck_truck" depart="288.01" departLane="best" from="36054466#3" to="5955850#2"/>
    <trip id="truck18" type="truck_truck" depart="304.95" departLane="best" departSpeed="max" from="-5955850#2" to="436291016#2"/>
    <trip id="truck19" type="truck_truck" depart="321.89" departLane="best" departSpeed="max" from="89922370#0" to="5955850#2"/>
    <trip id="truck20" type="truck_truck" depart="338.83" departLane="best" from="-641705065" to="5955850#2"/>
    <trip id="truck21" type="truck_truck" depart="355.77" departLane="best" departSpeed="max" from="-5955850#2" to="436291016#2"/>
    <trip id="truck22" type="truck_truck" depart="372.72" departLane="best" departSpeed="max" from="642337374#0" to="593766962#0"/>
    <trip id="truck23" type="truck_truck" depart="389.66" departLane="best" from="36054466#0" to="5955850#2"/>
    <trip id="truck24" type="truck_truck" depart="406.60" departLane="best" departSpeed="max" from="573865733#0" to="5955850#2"/>
    <trip id="truck25" type="truck_truck" depart="423.54" departLane="best" departSpeed="max" from="419814433#0" to="5955850#2"/>
    <trip id="truck26" type="truck_truck" depart="440.48" departLane="best" departSpeed="max" from="-5955850#2" to="436291016#7"/>
    <trip id="truck27" type="truck_truck" depart="457.42" departLane="best" departSpeed="max" from="-5955850#2" to="-419814433#0"/>
    <trip id="truck28" type="truck_truck" depart="474.36" departLane="best" departSpeed="max" from="419814433#0" to="5955850#2"/>
    <trip id="truck29" type="truck_truck" depart="491.31" departLane="best" departSpeed="max" from="-5955850#2" to="642751754#1"/>
    <trip id="truck30" type="truck_truck" depart="508.25" departLane="best" departSpeed="max" from="-5955850#2" to="642751754#1"/>
    <trip id="truck31" type="truck_truck" depart="525.19" departLane="best" departSpeed="max" from="6024091#0" to="642751754#1"/>
    <trip id="truck32" type="truck_truck" depart="542.13" departLane="best" departSpeed="max" from="89922370#0" to="436291016#9"/>
    <trip id="truck33" type="truck_truck" depart="559.07" departLane="best" departSpeed="max" from="6024091#0" to="642751754#0"/>
    <trip id="truck34" type="truck_truck" depart="576.01" departLane="best" from="36054466#0" to="5955850#2"/>
    <trip id="truck35" type="truck_truck" depart="592.96" departLane="best" from="5962129#3" to="5955850#2"/>
    <trip id="truck36" type="truck_truck" depart="609.90" departLane="best" departSpeed="max" from="573865733#0" to="593766962#0"/>
    <trip id="truck37" type="truck_truck" depart="626.84" departLane="best" departSpeed="max" from="419814433#0" to="5955850#2"/>
    <trip id="truck39" type="truck_truck" depart="660.72" departLane="best" departSpeed="max" from="-5955850#2" to="642751754#1"/>
    <trip id="truck40" type="truck_truck" depart="677.66" departLane="best" from="-641705065" to="5955850#2"/>
    <trip id="truck41" type="truck_truck" depart="694.61" departLane="best" departSpeed="max" from="573865733#0" to="36054466#10"/>
    <trip id="truck42" type="truck_truck" depart="711.55" departLane="best" from="419814433#1" to="5955850#2"/>
    <trip id="truck43" type="truck_truck" depart="728.49" departLane="best" departSpeed="max" from="642337374#0" to="593766962#0"/>
    <trip id="truck44" type="truck_truck" depart="745.43" departLane="best" departSpeed="max" from="6024091#0" to="642751754#1"/>
    <trip id="truck45" type="truck_truck" depart="762.37" departLane="best" departSpeed="max" from="-5955850#2" to="36054466#10"/>
    <trip id="truck46" type="truck_truck" depart="779.31" departLane="best" departSpeed="max" from="-5955850#2" to="642751754#0"/>
    <trip id="truck47" type="truck_truck" depart="796.26" departLane="best" departSpeed="max" from="-5955850#2" to="436291016#6"/>
    <trip id="truck48" type="truck_truck" depart="813.20" departLane="best" departSpeed="max" from="89922370#0" to="436291016#10"/>
    <trip id="truck49" type="truck_truck" depart="830.14" departLane="best" departSpeed="max" from="6024091#0" to="-89927838#0"/>
    <trip id="truck50" type="truck_truck" depart="847.08" departLane="best" departSpeed="max" from="-5955850#2" to="436291062"/>
    <trip id="truck51" type="truck_truck" depart="864.02" departLane="best" departSpeed="max" from="6024091#0" to="436291029"/>
    <trip id="truck52" type="truck_truck" depart="880.96" departLane="best" departSpeed="max" from="-5955850#2" to="436291020#1"/>
    <trip id="truck53" type="truck_truck" depart="897.90" departLane="best" departSpeed="max" from="89922370#0" to="-419814433#1"/>
    <trip id="truck54" type="truck_truck" depart="914.85" departLane="best" departSpeed="max" from="6024091#0" to="278328405#1"/>
    <trip id="truck55" type="truck_truck" depart="931.79" departLane="best" departSpeed="max" from="6024091#0" to="642751754#1"/>
    <trip id="truck56" type="truck_truck" depart="948.73" departLane="best" departSpeed="max" from="-5955850#2" to="641705146#1"/>
    <trip id="truck57" type="truck_truck" depart="965.67" departLane="best" departSpeed="max" from="89922370#0" to="641705065"/>
    <trip id="truck58" type="truck_truck" depart="982.61" departLane="best" departSpeed="max" from="89922370#0" to="641705146#2"/>
    <trip id="truck59" type="truck_truck" depart="999.55" departLane="best" departSpeed="max" from="-5955850#2" to="-419814433#0"/>
    <trip id="truck61" type="truck_truck" depart="1033.44" departLane="best" departSpeed="max" from="-5955850#2" to="436291020#2"/>
    <trip id="truck62" type="truck_truck" depart="1050.38" departLane="best" departSpeed="max" from="573865733#0" to="593766962#0"/>
    <trip id="truck63" type="truck_truck" depart="1067.32" departLane="best" departSpeed="max" from="-5955850#2" to="436291010"/>
    <trip id="truck64" type="truck_truck" depart="1084.26" departLane="best" departSpeed="max" from="89927838#0" to="5955850#2"/>
    <trip id="truck65" type="truck_truck" depart="1101.20" departLane="best" departSpeed="max" from="89922370#0" to="641705146#0"/>
    <trip id="truck66" type="truck_truck" depart="1118.15" departLane="best" departSpeed="max" from="-5955850#2" to="36054466#4"/>
    <trip id="truck68" type="truck_truck" depart="1152.03" departLane="best" departSpeed="max" from="6024091#0" to="436291029"/>
    <trip id="truck69" type="truck_truck" depart="1168.97" departLane="best" departSpeed="max" from="-5955850#2" to="36054466#4"/>
    <trip id="truck70" type="truck_truck" depart="1185.91" departLane="best" from="436291018" to="5955850#2"/>
    <trip id="truck73" type="truck_truck" depart="1236.74" departLane="best" departSpeed="max" from="-5955850#2" to="593766962#0"/>
    <trip id="truck74" type="truck_truck" depart="1253.68" departLane="best" departSpeed="max" from="573865733#0" to="593766962#0"/>
    <trip id="truck75" type="truck_truck" depart="1270.62" departLane="best" from="-593766965" to="5955850#2"/>
    <trip id="truck76" type="truck_truck" depart="1287.56" departLane="best" departSpeed="max" from="-5955850#2" to="234953562"/>
    <trip id="truck77" type="truck_truck" depart="1304.50" departLane="best" departSpeed="max" from="-5955850#2" to="641705063#1"/>
    <trip id="truck79" type="truck_truck" depart="1338.39" departLane="best" departSpeed="max" from="419814433#0" to="5955850#2"/>
    <trip id="truck80" type="truck_truck" depart="1355.33" departLane="best" departSpeed="max" from="6024091#0" to="641705146#2"/>
    <trip id="truck81" type="truck_truck" depart="1372.27" departLane="best" departSpeed="max" from="89922370#0" to="6024091#2"/>
    <trip id="truck82" type="truck_truck" depart="1389.21" departLane="best" departSpeed="max" from="-5955850#2" to="419814433#1"/>
    <trip id="truck83" type="truck_truck" depart="1406.15" departLane="best" departSpeed="max" from="436291021#0" to="5955850#2"/>
    <trip id="truck84" type="truck_truck" depart="1423.09" departLane="best" from="-5962129#1" to="5955850#2"/>
    <trip id="truck85" type="truck_truck" depart="1440.04" departLane="best" departSpeed="max" from="89922370#0" to="641705146#2"/>
    <trip id="truck86" type="truck_truck" depart="1456.98" departLane="best" departSpeed="max" from="-5955850#2" to="278328405#0"/>
    <trip id="truck87" type="truck_truck" depart="1473.92" departLane="best" from="593766965" to="5955850#2"/>
    <trip id="truck88" type="truck_truck" depart="1490.86" departLane="best" from="234953562" to="5955850#2"/>
    <trip id="truck89" type="truck_truck" depart="1507.80" departLane="best" departSpeed="max" from="89922370#0" to="641705146#2"/>
    <trip id="truck90" type="truck_truck" depart="1524.74" departLane="best" departSpeed="max" from="-5955850#2" to="642751754#1"/>
    <trip id="truck91" type="truck_truck" depart="1541.69" departLane="best" departSpeed="max" from="89922370#0" to="641705146#2"/>
    <trip id="truck92" type="truck_truck" depart="1558.63" departLane="best" departSpeed="max" from="-5955850#2" to="-89927838#0"/>
    <trip id="truck93" type="truck_truck" depart="1575.57" departLane="best" departSpeed="max" from="-5955850#2" to="36054466#7"/>
    <trip id="truck94" type="truck_truck" depart="1592.51" departLane="best" departSpeed="max" from="-5955850#2" to="-89927838#0"/>
    <trip id="truck96" type="truck_truck" depart="1626.39" departLane="best" departSpeed="max" from="89922370#0" to="-419814433#0"/>
    <trip id="truck97" type="truck_truck" depart="1643.34" departLane="best" from="436291011" to="5955850#2"/>
    <trip id="truck98" type="truck_truck" depart="1660.28" departLane="best" departSpeed="max" from="573865733#0" to="5955850#2"/>
    <trip id="truck99" type="truck_truck" depart="1677.22" departLane="best" departSpeed="max" from="89922370#0" to="5955850#1"/>
    <trip id="truck100" type="truck_truck" depart="1694.16" departLane="best" from="36054466#9" to="5955850#2"/>
    <trip id="truck101" type="truck_truck" depart="1711.10" departLane="best" departSpeed="max" from="89922370#0" to="436291016#0"/>
    <trip id="truck102" type="truck_truck" depart="1728.04" departLane="best" from="36054466#0" to="5955850#2"/>
    <trip id="truck104" type="truck_truck" depart="1761.93" departLane="best" departSpeed="max" from="89922370#0" to="436291016#3"/>
    <trip id="truck105" type="truck_truck" depart="1778.87" departLane="best" departSpeed="max" from="-5955850#2" to="-419814433#0"/>
    <trip id="truck106" type="truck_truck" depart="1795.81" departLane="best" departSpeed="max" from="-5955850#2" to="36054466#7"/>
    <trip id="truck107" type="truck_truck" depart="1812.75" departLane="best" from="36054466#8" to="5955850#2"/>
    <trip id="truck108" type="truck_truck" depart="1829.69" departLane="best" departSpeed="max" from="-5955850#2" to="436291062"/>
    <trip id="truck109" type="truck_truck" depart="1846.63" departLane="best" from="36054466#8" to="5955850#2"/>
    <trip id="truck110" type="truck_truck" depart="1863.58" departLane="best" departSpeed="max" from="89922370#0" to="5955850#2"/>
    <trip id="truck111" type="truck_truck" depart="1880.52" departLane="best" departSpeed="max" from="89927838#0" to="5955850#2"/>
    <trip id="truck112" type="truck_truck" depart="1897.46" departLane="best" departSpeed="max" from="-5955850#2" to="36054466#8"/>
    <trip id="truck114" type="truck_truck" depart="1931.34" departLane="best" departSpeed="max" from="573865733#0" to="593766962#0"/>
    <trip id="truck115" type="truck_truck" depart="1948.28" departLane="best" from="641705064#1" to="5955850#2"/>
    <trip id="truck116" type="truck_truck" depart="1965.23" departLane="best" departSpeed="max" from="-5955850#2" to="36054466#7"/>
    <trip id="truck117" type="truck_truck" depart="1982.17" departLane="best" from="-5962129#5" to="5955850#2"/>
    <trip id="truck118" type="truck_truck" depart="1999.11" departLane="best" departSpeed="max" from="-5955850#2" to="436291016#1"/>
    <trip id="truck119" type="truck_truck" depart="2016.05" departLane="best" departSpeed="max" from="6024091#0" to="436291029"/>
    <trip id="truck120" type="truck_truck" depart="2032.99" departLane="best" departSpeed="max" from="419814433#0" to="5955850#2"/>
    <trip id="truck122" type="truck_truck" depart="2066.88" departLane="best" from="419814433#1" to="5955850#2"/>
    <trip id="truck123" type="truck_truck" depart="2083.82" departLane="best" departSpeed="max" from="-5955850#2" to="641705146#2"/>
    <trip id="truck124" type="truck_truck" depart="2100.76" departLane="best" departSpeed="max" from="419814433#0" to="5955850#2"/>
    <trip id="truck125" type="truck_truck" depart="2117.70" departLane="best" from="36054466#0" to="5955850#2"/>
    <trip id="truck126" type="truck_truck" depart="2134.64" departLane="best" from="-419814433#2" to="5955850#2"/>
    <trip id="truck127" type="truck_truck" depart="2151.58" departLane="best" departSpeed="max" from="-5955850#2" to="436291020#0"/>
    <trip id="truck128" type="truck_truck" depart="2168.53" departLane="best" from="436291010" to="5955850#2"/>
    <trip id="truck130" type="truck_truck" depart="2202.41" departLane="best" departSpeed="max" from="6024091#0" to="5955850#2"/>
    <trip id="truck131" type="truck_truck" depart="2219.35" departLane="best" departSpeed="max" from="6024091#0" to="-89927838#0"/>
    <trip id="truck132" type="truck_truck" depart="2236.29" departLane="best" departSpeed="max" from="-5955850#2" to="634644489"/>
    <trip id="truck133" type="truck_truck" depart="2253.23" departLane="best" from="641705063#3" to="5955850#2"/>
    <trip id="truck134" type="truck_truck" depart="2270.17" departLane="best" departSpeed="max" from="-5955850#2" to="-89927838#0"/>
    <trip id="truck135" type="truck_truck" depart="2287.12" departLane="best" departSpeed="max" from="-5955850#2" to="-419814433#0"/>
    <trip id="truck136" type="truck_truck" depart="2304.06" departLane="best" departSpeed="max" from="-5955850#2" to="641705064#1"/>
    <trip id="truck138" type="truck_truck" depart="2337.94" departLane="best" from="-593766960" to="5955850#2"/>
    <trip id="truck139" type="truck_truck" depart="2354.88" departLane="best" from="641705064#0" to="5955850#2"/>
    <trip id="truck140" type="truck_truck" depart="2371.82" departLane="best" departSpeed="max" from="89922370#0" to="-419814433#0"/>
    <trip id="truck141" type="truck_truck" depart="2388.77" departLane="best" departSpeed="max" from="89922370#0" to="6024091#5"/>
    <trip id="truck142" type="truck_truck" depart="2405.71" departLane="best" departSpeed="max" from="89922370#0" to="436291016#10"/>
    <trip id="truck143" type="truck_truck" depart="2422.65" departLane="best" departSpeed="max" from="-5955850#2" to="-89927838#0"/>
    <trip id="truck144" type="truck_truck" depart="2439.59" departLane="best" departSpeed="max" from="419814433#0" to="5955850#2"/>
    <trip id="truck145" type="truck_truck" depart="2456.53" departLane="best" departSpeed="max" from="-5955850#2" to="5962129#2"/>
    <trip id="truck146" type="truck_truck" depart="2473.47" departLane="best" departSpeed="max" from="-5955850#2" to="5962129#4"/>
    <trip id="truck147" type="truck_truck" depart="2490.42" departLane="best" from="-593766965" to="5955850#2"/>
    <trip id="truck148" type="truck_truck" depart="2507.36" departLane="best" departSpeed="max" from="6024091#0" to="642751754#1"/>
    <trip id="truck149" type="truck_truck" depart="2524.30" departLane="best" departSpeed="max" from="6024091#0" to="436291029"/>
    <trip id="truck150" type="truck_truck" depart="2541.24" departLane="best" departSpeed="max" from="573865733#0" to="593766962#0"/>
    <trip id="truck151" type="truck_truck" depart="2558.18" departLane="best" from="-641705065" to="5955850#2"/>
    <trip id="truck152" type="truck_truck" depart="2575.12" departLane="best" from="641705063#3" to="5955850#2"/>
    <trip id="truck153" type="truck_truck" depart="2592.07" departLane="best" departSpeed="max" from="89922370#0" to="642361032"/>
    <trip id="truck154" type="truck_truck" depart="2609.01" departLane="best" from="573865733#1" to="5955850#2"/>
    <trip id="truck155" type="truck_truck" depart="2625.95" departLane="best" departSpeed="max" from="89922370#0" to="5955850#2"/>
    <trip id="truck156" type="truck_truck" depart="2642.89" departLane="best" departSpeed="max" from="-5955850#2" to="-419814433#0"/>
    <trip id="truck157" type="truck_truck" depart="2659.83" departLane="best" from="5955850#0" to="5955850#2"/>
    <trip id="truck158" type="truck_truck" depart="2676.77" departLane="best" departSpeed="max" from="-593766962#1" to="5955850#2"/>
    <trip id="truck159" type="truck_truck" depart="2693.71" departLane="best" departSpeed="max" from="-5955850#2" to="36054466#10"/>
    <trip id="truck160" type="truck_truck" depart="2710.66" departLane="best" from="-5962129#5" to="5955850#2"/>
    <trip id="truck161" type="truck_truck" depart="2727.60" departLane="best" departSpeed="max" from="436291021#0" to="641705146#2"/>
    <trip id="truck162" type="truck_truck" depart="2744.54" departLane="best" departSpeed="max" from="-593766962#1" to="641705146#2"/>
    <trip id="truck163" type="truck_truck" depart="2761.48" departLane="best" departSpeed="max" from="-5955850#2" to="234953562"/>
    <trip id="truck164" type="truck_truck" depart="2778.42" departLane="best" from="-641705065" to="5955850#2"/>
    <trip id="truck165" type="truck_truck" depart="2795.36" departLane="best" departSpeed="max" from="-5955850#2" to="436291016#1"/>
    <trip id="truck166" type="truck_truck" depart="2812.31" departLane="best" departSpeed="max" from="-5955850#2" to="-5962129#0"/>
    <trip id="truck167" type="truck_truck" depart="2829.25" departLane="best" from="-89927838#3" to="5955850#2"/>
    <trip id="truck168" type="truck_truck" depart="2846.19" departLane="best" departSpeed="max" from="89922370#0" to="419814433#1"/>
    <trip id="truck169" type="truck_truck" depart="2863.13" departLane="best" departSpeed="max" from="-593766962#1" to="641705146#2"/>
    <trip id="truck170" type="truck_truck" depart="2880.07" departLane="best" from="641705063#3" to="5955850#2"/>
    <trip id="truck171" type="truck_truck" depart="2897.01" departLane="best" departSpeed="max" from="89922370#0" to="-5962129#1"/>
    <trip id="truck172" type="truck_truck" depart="2913.96" departLane="best" from="5962129#5" to="5955850#2"/>
    <trip id="truck173" type="truck_truck" depart="2930.90" departLane="best" departSpeed="max" from="436291021#0" to="5955850#2"/>
    <trip id="truck174" type="truck_truck" depart="2947.84" departLane="best" departSpeed="max" from="436291021#0" to="5955850#2"/>
    <trip id="truck175" type="truck_truck" depart="2964.78" departLane="best" departSpeed="max" from="-5955850#2" to="5962129#0"/>
    <trip id="truck176" type="truck_truck" depart="2981.72" departLane="best" departSpeed="max" from="89922370#0" to="436291016#10"/>
    <trip id="truck177" type="truck_truck" depart="2998.66" departLane="best" departSpeed="max" from="-5955850#2" to="436291020#0"/>
    <trip id="truck178" type="truck_truck" depart="3015.61" departLane="best" departSpeed="max" from="89922370#0" to="641705146#0"/>
    <trip id="truck179" type="truck_truck" depart="3032.55" departLane="best" departSpeed="max" from="-5955850#2" to="436291016#10"/>
    <trip id="truck180" type="truck_truck" depart="3049.49" departLane="best" from="436291016#3" to="5955850#2"/>
    <trip id="truck181" type="truck_truck" depart="3066.43" departLane="best" departSpeed="max" from="-5955850#2" to="436291010"/>
    <trip id="truck183" type="truck_truck" depart="3100.31" departLane="best" departSpeed="max" from="6024091#0" to="641705146#2"/>
    <trip id="truck184" type="truck_truck" depart="3117.25" departLane="best" from="-5962129#4" to="5955850#2"/>
    <trip id="truck186" type="truck_truck" depart="3151.14" departLane="best" departSpeed="max" from="6024091#0" to="-89927838#0"/>
    <trip id="truck187" type="truck_truck" depart="3168.08" departLane="best" departSpeed="max" from="89927838#0" to="5955850#2"/>
    <trip id="truck188" type="truck_truck" depart="3185.02" departLane="best" departSpeed="max" from="89922370#0" to="436291016#10"/>
    <trip id="truck189" type="truck_truck" depart="3201.96" departLane="best" departSpeed="max" from="89922370#0" to="641705064#1"/>
    <trip id="truck190" type="truck_truck" depart="3218.90" departLane="best" from="436291031" to="5955850#2"/>
    <trip id="truck191" type="truck_truck" depart="3235.85" departLane="best" departSpeed="max" from="573865733#0" to="5955850#2"/>
    <trip id="truck192" type="truck_truck" depart="3252.79" departLane="best" departSpeed="max" from="-5955850#2" to="641705063#0"/>
    <trip id="truck193" type="truck_truck" depart="3269.73" departLane="best" departSpeed="max" from="-5955850#2" to="436291016#10"/>
    <trip id="truck194" type="truck_truck" depart="3286.67" departLane="best" departSpeed="max" from="-5955850#2" to="-419814433#0"/>
    <trip id="truck195" type="truck_truck" depart="3303.61" departLane="best" departSpeed="max" from="-5955850#2" to="593766965"/>
    <trip id="truck196" type="truck_truck" depart="3320.55" departLane="best" departSpeed="max" from="-5955850#2" to="5962129#3"/>
    <trip id="truck197" type="truck_truck" depart="3337.50" departLane="best" departSpeed="max" from="419814433#0" to="5955850#2"/>
    <trip id="truck198" type="truck_truck" depart="3354.44" departLane="best" departSpeed="max" from="-5955850#2" to="-89927838#0"/>
    <trip id="truck199" type="truck_truck" depart="3371.38" departLane="best" departSpeed="max" from="-5955850#2" to="36054466#1"/>
    <trip id="truck200" type="truck_truck" depart="3388.32" departLane="best" departSpeed="max" from="-5955850#2" to="234953562"/>
    <trip id="truck201" type="truck_truck" depart="3405.26" departLane="best" departSpeed="max" from="-5955850#2" to="436291018"/>
    <trip id="truck202" type="truck_truck" depart="3422.20" departLane="best" departSpeed="max" from="-5955850#2" to="593766962#0"/>
    <trip id="truck203" type="truck_truck" depart="3439.15" departLane="best" from="-641705065" to="5955850#2"/>
    <trip id="truck204" type="truck_truck" depart="3456.09" departLane="best" departSpeed="max" from="-5955850#2" to="-419814433#0"/>
    <trip id="truck205" type="truck_truck" depart="3473.03" departLane="best" from="36054466#6" to="5955850#2"/>
    <trip id="truck206" type="truck_truck" depart="3489.97" departLane="best" from="419814433#1" to="5955850#2"/>
    <trip id="truck207" type="truck_truck" depart="3506.91" departLane="best" departSpeed="max" from="6024091#0" to="641705146#2"/>
    <trip id="truck209" type="truck_truck" depart="3540.80" departLane="best" from="436291064#0" to="5955850#2"/>
    <trip id="truck210" type="truck_truck" depart="3557.74" departLane="best" departSpeed="max" from="6024091#0" to="-89927838#0"/>
    <trip id="truck211" type="truck_truck" depart="3574.68" departLane="best" departSpeed="max" from="89922370#0" to="436291016#4"/>
    <trip id="truck212" type="truck_truck" depart="3591.62" departLane="best" departSpeed="max" from="89922370#0" to="641705064#1"/>
</routes>
