<?xml version="1.0" encoding="UTF-8"?>

<!-- generated on mar 03 dic 2019 16:35:28 -03 by Eclipse SUMO netedit Version 1.3.1
<configuration xmlns:xsi="http://www.w3.org/2001/XMLSchema-instance" xsi:noNamespaceSchemaLocation="http://sumo.dlr.de/xsd/netconvertConfiguration.xsd">

    <input>
        <sumo-net-file value="optimal.net.xml"/>
    </input>

    <output>
        <output-file value="optimal.net.xml"/>
    </output>

    <processing>
        <geometry.max-grade.fix value="false"/>
        <offset.disable-normalization value="true"/>
        <opposites.guess.fix-lengths value="true"/>
        <lefthand value="false"/>
    </processing>

    <junctions>
        <no-turnarounds value="true"/>
        <junctions.corner-detail value="5"/>
        <junctions.limit-turn-speed value="5.5"/>
        <rectangular-lane-cut value="false"/>
    </junctions>

    <pedestrian>
        <walkingareas value="false"/>
    </pedestrian>

    <netedit>
        <additional-files value="/home/pandora/Desktop/Jose_Proyecto/ProyectoTesis/Simulación/SUMO/SanDiego/SUMO_SanDiego_Pilot1/MicroDescongest/optimal/e2.add.xml"/>
    </netedit>

</configuration>
-->

<additional xmlns:xsi="http://www.w3.org/2001/XMLSchema-instance" xsi:noNamespaceSchemaLocation="http://sumo.dlr.de/xsd/additional_file.xsd">
    <e2Detector id="e2det_A1B1_0" lane="A1B1_0" pos="69.50" length="20.00" freq="2.00" file="e2output.xml" friendlyPos="1"/>
    <e2Detector id="e2det_A1B1_1" lane="A1B1_1" pos="69.50" length="20.00" freq="2.00" file="e2output.xml" friendlyPos="1"/>
    <e2Detector id="e2det_A2B2_0" lane="A2B2_0" pos="69.50" length="20.00" freq="2.00" file="e2output.xml" friendlyPos="1"/>
    <e2Detector id="e2det_A2B2_1" lane="A2B2_1" pos="69.50" length="20.00" freq="2.00" file="e2output.xml" friendlyPos="1"/>
    <e2Detector id="e2det_B0B1_0" lane="B0B1_0" pos="69.50" length="20.00" freq="2.00" file="e2output.xml" friendlyPos="1"/>
    <e2Detector id="e2det_B0B1_1" lane="B0B1_1" pos="69.50" length="20.00" freq="2.00" file="e2output.xml" friendlyPos="1"/>
    <e2Detector id="e2det_B1B2_0" lane="B1B2_0" pos="59.10" length="20.00" freq="2.00" file="e2output.xml" friendlyPos="1"/>
    <e2Detector id="e2det_B1B2_1" lane="B1B2_1" pos="59.10" length="20.00" freq="2.00" file="e2output.xml" friendlyPos="1"/>
    <e2Detector id="e2det_B1C1_0" lane="B1C1_0" pos="59.10" length="20.00" freq="2.00" file="e2output.xml" friendlyPos="1"/>
    <e2Detector id="e2det_B1C1_1" lane="B1C1_1" pos="59.10" length="20.00" freq="2.00" file="e2output.xml" friendlyPos="1"/>
    <e2Detector id="e2det_B2B1_0" lane="B2B1_0" pos="59.10" length="20.00" freq="2.00" file="e2output.xml" friendlyPos="1"/>
    <e2Detector id="e2det_B2B1_1" lane="B2B1_1" pos="59.10" length="20.00" freq="2.00" file="e2output.xml" friendlyPos="1"/>
    <e2Detector id="e2det_B2C2_0" lane="B2C2_0" pos="59.10" length="20.00" freq="2.00" file="e2output.xml" friendlyPos="1"/>
    <e2Detector id="e2det_B2C2_1" lane="B2C2_1" pos="59.10" length="20.00" freq="2.00" file="e2output.xml" friendlyPos="1"/>
    <e2Detector id="e2det_B3B2_0" lane="B3B2_0" pos="59.10" length="20.00" freq="2.00" file="e2output.xml" friendlyPos="1"/>
    <e2Detector id="e2det_B3B2_1" lane="B3B2_1" pos="59.10" length="20.00" freq="2.00" file="e2output.xml" friendlyPos="1"/>
    <e2Detector id="e2det_C0C1_0" lane="C0C1_0" pos="69.50" length="20.00" freq="2.00" file="e2output.xml" friendlyPos="1"/>
    <e2Detector id="e2det_C0C1_1" lane="C0C1_1" pos="69.50" length="20.00" freq="2.00" file="e2output.xml" friendlyPos="1"/>
    <e2Detector id="e2det_C1B1_0" lane="C1B1_0" pos="59.10" length="20.00" freq="2.00" file="e2output.xml" friendlyPos="1"/>
    <e2Detector id="e2det_C1B1_1" lane="C1B1_1" pos="59.10" length="20.00" freq="2.00" file="e2output.xml" friendlyPos="1"/>
    <e2Detector id="e2det_C1C2_0" lane="C1C2_0" pos="59.10" length="20.00" freq="2.00" file="e2output.xml" friendlyPos="1"/>
    <e2Detector id="e2det_C1C2_1" lane="C1C2_1" pos="59.10" length="20.00" freq="2.00" file="e2output.xml" friendlyPos="1"/>
    <e2Detector id="e2det_C1D1_0" lane="C1D1_0" pos="59.10" length="20.00" freq="2.00" file="e2output.xml" friendlyPos="1"/>
    <e2Detector id="e2det_C1D1_1" lane="C1D1_1" pos="59.10" length="20.00" freq="2.00" file="e2output.xml" friendlyPos="1"/>
    <e2Detector id="e2det_C2B2_0" lane="C2B2_0" pos="59.10" length="20.00" freq="2.00" file="e2output.xml" friendlyPos="1"/>
    <e2Detector id="e2det_C2B2_1" lane="C2B2_1" pos="59.10" length="20.00" freq="2.00" file="e2output.xml" friendlyPos="1"/>
    <e2Detector id="e2det_C2C1_0" lane="C2C1_0" pos="59.10" length="20.00" freq="2.00" file="e2output.xml" friendlyPos="1"/>
    <e2Detector id="e2det_C2C1_1" lane="C2C1_1" pos="59.10" length="20.00" freq="2.00" file="e2output.xml" friendlyPos="1"/>
    <e2Detector id="e2det_C2D2_0" lane="C2D2_0" pos="59.10" length="20.00" freq="2.00" file="e2output.xml" friendlyPos="1"/>
    <e2Detector id="e2det_C2D2_1" lane="C2D2_1" pos="59.10" length="20.00" freq="2.00" file="e2output.xml" friendlyPos="1"/>
    <e2Detector id="e2det_C3C2_0" lane="C3C2_0" pos="59.10" length="20.00" freq="2.00" file="e2output.xml" friendlyPos="1"/>
    <e2Detector id="e2det_C3C2_1" lane="C3C2_1" pos="59.10" length="20.00" freq="2.00" file="e2output.xml" friendlyPos="1"/>
    <e2Detector id="e2det_C3D3_0" lane="C3D3_0" pos="59.10" length="20.00" freq="2.00" file="e2output.xml" friendlyPos="1"/>
    <e2Detector id="e2det_C3D3_1" lane="C3D3_1" pos="59.10" length="20.00" freq="2.00" file="e2output.xml" friendlyPos="1"/>
    <e2Detector id="e2det_D0D1_0" lane="D0D1_0" pos="69.50" length="20.00" freq="2.00" file="e2output.xml" friendlyPos="1"/>
    <e2Detector id="e2det_D0D1_1" lane="D0D1_1" pos="69.50" length="20.00" freq="2.00" file="e2output.xml" friendlyPos="1"/>
    <e2Detector id="e2det_D1C1_0" lane="D1C1_0" pos="59.10" length="20.00" freq="2.00" file="e2output.xml" friendlyPos="1"/>
    <e2Detector id="e2det_D1C1_1" lane="D1C1_1" pos="59.10" length="20.00" freq="2.00" file="e2output.xml" friendlyPos="1"/>
    <e2Detector id="e2det_D1D2_0" lane="D1D2_0" pos="59.10" length="20.00" freq="2.00" file="e2output.xml" friendlyPos="1"/>
    <e2Detector id="e2det_D1D2_1" lane="D1D2_1" pos="59.10" length="20.00" freq="2.00" file="e2output.xml" friendlyPos="1"/>
    <e2Detector id="e2det_D2C2_0" lane="D2C2_0" pos="59.10" length="20.00" freq="2.00" file="e2output.xml" friendlyPos="1"/>
    <e2Detector id="e2det_D2C2_1" lane="D2C2_1" pos="59.10" length="20.00" freq="2.00" file="e2output.xml" friendlyPos="1"/>
    <e2Detector id="e2det_D2D1_0" lane="D2D1_0" pos="59.10" length="20.00" freq="2.00" file="e2output.xml" friendlyPos="1"/>
    <e2Detector id="e2det_D2D1_1" lane="D2D1_1" pos="59.10" length="20.00" freq="2.00" file="e2output.xml" friendlyPos="1"/>
    <e2Detector id="e2det_D2D3_0" lane="D2D3_0" pos="59.10" length="20.00" freq="2.00" file="e2output.xml" friendlyPos="1"/>
    <e2Detector id="e2det_D2D3_1" lane="D2D3_1" pos="59.10" length="20.00" freq="2.00" file="e2output.xml" friendlyPos="1"/>
    <e2Detector id="e2det_D3D2_0" lane="D3D2_0" pos="59.10" length="20.00" freq="2.00" file="e2output.xml" friendlyPos="1"/>
    <e2Detector id="e2det_D3D2_1" lane="D3D2_1" pos="59.10" length="20.00" freq="2.00" file="e2output.xml" friendlyPos="1"/>
    <e2Detector id="e2det_D4D3_0" lane="D4D3_0" pos="69.50" length="20.00" freq="2.00" file="e2output.xml" friendlyPos="1"/>
    <e2Detector id="e2det_D4D3_1" lane="D4D3_1" pos="69.50" length="20.00" freq="2.00" file="e2output.xml" friendlyPos="1"/>
    <e2Detector id="e2det_E1D1_0" lane="E1D1_0" pos="69.50" length="20.00" freq="2.00" file="e2output.xml" friendlyPos="1"/>
    <e2Detector id="e2det_E1D1_1" lane="E1D1_1" pos="69.50" length="20.00" freq="2.00" file="e2output.xml" friendlyPos="1"/>
    <e2Detector id="e2det_E2D2_0" lane="E2D2_0" pos="69.50" length="20.00" freq="2.00" file="e2output.xml" friendlyPos="1"/>
    <e2Detector id="e2det_E2D2_1" lane="E2D2_1" pos="69.50" length="20.00" freq="2.00" file="e2output.xml" friendlyPos="1"/>
    <e2Detector id="e2det_E3D3_0" lane="E3D3_0" pos="69.50" length="20.00" freq="2.00" file="e2output.xml" friendlyPos="1"/>
    <e2Detector id="e2det_E3D3_1" lane="E3D3_1" pos="69.50" length="20.00" freq="2.00" file="e2output.xml" friendlyPos="1"/>
    <e2Detector id="intersection/0002/e2det/e01/__wn" lane="C3B3_0" pos="59.10" length="20.00" freq="2.00" file="e2output.xml" friendlyPos="1"/>
    <e2Detector id="intersection/0002/e2det/e02/_sw_" lane="C3B3_1" pos="59.10" length="20.00" freq="2.00" file="e2output.xml" friendlyPos="1"/>
    <e2Detector id="intersection/0002/e2det/n01/__sw" lane="B4B3_0" pos="69.50" length="20.00" freq="2.00" file="e2output.xml" friendlyPos="1"/>
    <e2Detector id="intersection/0002/e2det/n02/_es_" lane="B4B3_1" pos="69.50" length="20.00" freq="2.00" file="e2output.xml" friendlyPos="1"/>
    <e2Detector id="intersection/0002/e2det/s01/__ne" lane="B2B3_0" pos="59.10" length="20.00" freq="2.00" file="e2output.xml" friendlyPos="1"/>
    <e2Detector id="intersection/0002/e2det/s02/_wn_" lane="B2B3_1" pos="59.10" length="20.00" freq="2.00" file="e2output.xml" friendlyPos="1"/>
    <e2Detector id="intersection/0002/e2det/w01/__es" lane="A3B3_0" pos="69.50" length="20.00" freq="2.00" file="e2output.xml" friendlyPos="1"/>
    <e2Detector id="intersection/0002/e2det/w02/_ne_" lane="A3B3_1" pos="69.50" length="20.00" freq="2.00" file="e2output.xml" friendlyPos="1"/>
    <e2Detector id="intersection/0003/e2det/e01/__wn" lane="D3C3_0" pos="59.10" length="20.00" freq="2.00" file="e2output.xml" friendlyPos="1"/>
    <e2Detector id="intersection/0003/e2det/e02/_sw_" lane="D3C3_1" pos="59.10" length="20.00" freq="2.00" file="e2output.xml" friendlyPos="1"/>
    <e2Detector id="intersection/0003/e2det/n01/__sw" lane="C4C3_0" pos="69.50" length="20.00" freq="2.00" file="e2output.xml" friendlyPos="1"/>
    <e2Detector id="intersection/0003/e2det/n02/_es_" lane="C4C3_1" pos="69.50" length="20.00" freq="2.00" file="e2output.xml" friendlyPos="1"/>
    <e2Detector id="intersection/0003/e2det/s01/__ne" lane="C2C3_0" pos="59.10" length="20.00" freq="2.00" file="e2output.xml" friendlyPos="1"/>
    <e2Detector id="intersection/0003/e2det/s02/_wn_" lane="C2C3_1" pos="59.10" length="20.00" freq="2.00" file="e2output.xml" friendlyPos="1"/>
    <e2Detector id="intersection/0003/e2det/w01/__es" lane="B3C3_0" pos="59.10" length="20.00" freq="2.00" file="e2output.xml" friendlyPos="1"/>
    <e2Detector id="intersection/0003/e2det/w02/_ne_" lane="B3C3_1" pos="59.10" length="20.00" freq="2.00" file="e2output.xml" friendlyPos="1"/>
</additional>
