<?xml version="1.0" encoding="UTF-8"?>

<!-- generated on Tue Dec  3 13:00:16 2019 by Eclipse SUMO duarouter Version 1.3.1
<configuration xmlns:xsi="http://www.w3.org/2001/XMLSchema-instance" xsi:noNamespaceSchemaLocation="http://sumo.dlr.de/xsd/duarouterConfiguration.xsd">

    <input>
        <net-file value="optimal.net.xml"/>
        <route-files value="optimal.motorcycle.trips.xml"/>
    </input>

    <output>
        <output-file value="optimal.motorcycle.trips.xml.tmp"/>
        <write-trips value="true"/>
    </output>

    <time>
        <begin value="0"/>
        <end value="3600.0"/>
    </time>

    <report>
        <no-warnings value="true"/>
        <ignore-errors value="true"/>
        <no-step-log value="true"/>
    </report>

</configuration>
-->

<routes xmlns:xsi="http://www.w3.org/2001/XMLSchema-instance" xsi:noNamespaceSchemaLocation="http://sumo.dlr.de/xsd/routes_file.xsd">
    <vType id="moto_motorcycle" vClass="motorcycle"/>
    <trip id="moto0" type="moto_motorcycle" depart="0.00" departLane="best" departSpeed="max" from="C4C3" to="B1A1"/>
    <trip id="moto1" type="moto_motorcycle" depart="16.94" departLane="best" from="B3B2" to="B2C2"/>
    <trip id="moto2" type="moto_motorcycle" depart="33.88" departLane="best" from="D2C2" to="D1D0"/>
    <trip id="moto3" type="moto_motorcycle" depart="50.82" departLane="best" departSpeed="max" from="E1D1" to="B1B2"/>
    <trip id="moto4" type="moto_motorcycle" depart="67.77" departLane="best" from="C1C2" to="B1A1"/>
    <trip id="moto5" type="moto_motorcycle" depart="84.71" departLane="best" from="B2B1" to="C2C3"/>
    <trip id="moto6" type="moto_motorcycle" depart="101.65" departLane="best" departSpeed="max" from="A1B1" to="B2B3"/>
    <trip id="moto7" type="moto_motorcycle" depart="118.59" departLane="best" departSpeed="max" from="D0D1" to="C3B3"/>
    <trip id="moto8" type="moto_motorcycle" depart="135.53" departLane="best" from="B2B1" to="C3C4"/>
    <trip id="moto9" type="moto_motorcycle" depart="152.47" departLane="best" from="D3C3" to="B1A1"/>
    <trip id="moto10" type="moto_motorcycle" depart="169.42" departLane="best" from="D3C3" to="D1D0"/>
    <trip id="moto11" type="moto_motorcycle" depart="186.36" departLane="best" departSpeed="max" from="B4B3" to="B2A2"/>
    <trip id="moto12" type="moto_motorcycle" depart="203.30" departLane="best" departSpeed="max" from="E2D2" to="B3C3"/>
    <trip id="moto13" type="moto_motorcycle" depart="220.24" departLane="best" departSpeed="max" from="A3B3" to="B1B2"/>
    <trip id="moto14" type="moto_motorcycle" depart="237.18" departLane="best" departSpeed="max" from="D4D3" to="C3C4"/>
    <trip id="moto15" type="moto_motorcycle" depart="254.12" departLane="best" from="D3C3" to="D1E1"/>
    <trip id="moto16" type="moto_motorcycle" depart="271.07" departLane="best" from="C2D2" to="D3E3"/>
    <trip id="moto17" type="moto_motorcycle" depart="288.01" departLane="best" departSpeed="max" from="C0C1" to="C3B3"/>
    <trip id="moto18" type="moto_motorcycle" depart="304.95" departLane="best" from="D3D2" to="C3C4"/>
    <trip id="moto19" type="moto_motorcycle" depart="321.89" departLane="best" departSpeed="max" from="D4D3" to="C3C2"/>
    <trip id="moto20" type="moto_motorcycle" depart="338.83" departLane="best" from="D1C1" to="B1B0"/>
    <trip id="moto21" type="moto_motorcycle" depart="355.77" departLane="best" from="B2B1" to="B3B2"/>
    <trip id="moto22" type="moto_motorcycle" depart="372.72" departLane="best" departSpeed="max" from="A2B2" to="B3A3"/>
    <trip id="moto23" type="moto_motorcycle" depart="389.66" departLane="best" departSpeed="max" from="A3B3" to="B3B2"/>
    <trip id="moto24" type="moto_motorcycle" depart="406.60" departLane="best" departSpeed="max" from="C4C3" to="C1B1"/>
    <trip id="moto25" type="moto_motorcycle" depart="423.54" departLane="best" departSpeed="max" from="C0C1" to="B2C2"/>
    <trip id="moto26" type="moto_motorcycle" depart="440.48" departLane="best" from="B2C2" to="D3D4"/>
    <trip id="moto27" type="moto_motorcycle" depart="457.42" departLane="best" departSpeed="max" from="D0D1" to="C3C4"/>
    <trip id="moto28" type="moto_motorcycle" depart="474.36" departLane="best" from="B1B2" to="D1D2"/>
    <trip id="moto29" type="moto_motorcycle" depart="491.31" departLane="best" departSpeed="max" from="B0B1" to="C1C0"/>
    <trip id="moto30" type="moto_motorcycle" depart="508.25" departLane="best" departSpeed="max" from="E3D3" to="C3D3"/>
    <trip id="moto31" type="moto_motorcycle" depart="525.19" departLane="best" from="C3B3" to="D1D0"/>
    <trip id="moto32" type="moto_motorcycle" depart="542.13" departLane="best" departSpeed="max" from="D4D3" to="D2C2"/>
    <trip id="moto33" type="moto_motorcycle" depart="559.07" departLane="best" from="B2B1" to="B1A1"/>
    <trip id="moto34" type="moto_motorcycle" depart="576.01" departLane="best" departSpeed="max" from="B4B3" to="B3A3"/>
    <trip id="moto35" type="moto_motorcycle" depart="592.96" departLane="best" from="B2B1" to="D3D4"/>
    <trip id="moto36" type="moto_motorcycle" depart="609.90" departLane="best" departSpeed="max" from="E1D1" to="B3B4"/>
    <trip id="moto37" type="moto_motorcycle" depart="626.84" departLane="best" departSpeed="max" from="D0D1" to="C1C0"/>
    <trip id="moto38" type="moto_motorcycle" depart="643.78" departLane="best" departSpeed="max" from="E1D1" to="C2B2"/>
    <trip id="moto39" type="moto_motorcycle" depart="660.72" departLane="best" from="B2C2" to="B3A3"/>
    <trip id="moto40" type="moto_motorcycle" depart="677.66" departLane="best" from="C3B3" to="B3A3"/>
    <trip id="moto41" type="moto_motorcycle" depart="694.61" departLane="best" from="C3D3" to="D3D2"/>
    <trip id="moto42" type="moto_motorcycle" depart="711.55" departLane="best" from="C1B1" to="B2C2"/>
    <trip id="moto43" type="moto_motorcycle" depart="728.49" departLane="best" departSpeed="max" from="E3D3" to="C2C3"/>
    <trip id="moto44" type="moto_motorcycle" depart="745.43" departLane="best" departSpeed="max" from="A3B3" to="B1B0"/>
    <trip id="moto45" type="moto_motorcycle" depart="762.37" departLane="best" departSpeed="max" from="A3B3" to="C3D3"/>
    <trip id="moto46" type="moto_motorcycle" depart="779.31" departLane="best" from="D3C3" to="C1C2"/>
    <trip id="moto47" type="moto_motorcycle" depart="796.26" departLane="best" departSpeed="max" from="A2B2" to="C1C0"/>
    <trip id="moto48" type="moto_motorcycle" depart="813.20" departLane="best" departSpeed="max" from="E3D3" to="C2D2"/>
    <trip id="moto49" type="moto_motorcycle" depart="830.14" departLane="best" departSpeed="max" from="E3D3" to="D2E2"/>
    <trip id="moto50" type="moto_motorcycle" depart="847.08" departLane="best" departSpeed="max" from="A1B1" to="D1D2"/>
    <trip id="moto51" type="moto_motorcycle" depart="864.02" departLane="best" departSpeed="max" from="D0D1" to="C2D2"/>
    <trip id="moto52" type="moto_motorcycle" depart="880.96" departLane="best" from="B2C2" to="C3D3"/>
    <trip id="moto53" type="moto_motorcycle" depart="897.90" departLane="best" departSpeed="max" from="A3B3" to="C1C2"/>
    <trip id="moto54" type="moto_motorcycle" depart="914.85" departLane="best" from="C1D1" to="D3D4"/>
    <trip id="moto55" type="moto_motorcycle" depart="931.79" departLane="best" departSpeed="max" from="E1D1" to="B3A3"/>
    <trip id="moto56" type="moto_motorcycle" depart="948.73" departLane="best" from="C2C3" to="B2B1"/>
    <trip id="moto57" type="moto_motorcycle" depart="965.67" departLane="best" departSpeed="max" from="E1D1" to="D2E2"/>
    <trip id="moto58" type="moto_motorcycle" depart="982.61" departLane="best" from="B3C3" to="C3D3"/>
    <trip id="moto59" type="moto_motorcycle" depart="999.55" departLane="best" departSpeed="max" from="C4C3" to="B2A2"/>
    <trip id="moto60" type="moto_motorcycle" depart="1016.50" departLane="best" from="D2D1" to="C2D2"/>
    <trip id="moto61" type="moto_motorcycle" depart="1033.44" departLane="best" from="D2D3" to="C2D2"/>
    <trip id="moto62" type="moto_motorcycle" depart="1050.38" departLane="best" departSpeed="max" from="A1B1" to="B3B4"/>
    <trip id="moto63" type="moto_motorcycle" depart="1067.32" departLane="best" departSpeed="max" from="A1B1" to="D3D4"/>
    <trip id="moto64" type="moto_motorcycle" depart="1084.26" departLane="best" departSpeed="max" from="E1D1" to="D2D3"/>
    <trip id="moto65" type="moto_motorcycle" depart="1101.20" departLane="best" from="B3C3" to="B1B0"/>
    <trip id="moto66" type="moto_motorcycle" depart="1118.15" departLane="best" departSpeed="max" from="E1D1" to="D3D4"/>
    <trip id="moto67" type="moto_motorcycle" depart="1135.09" departLane="best" departSpeed="max" from="A3B3" to="C2C1"/>
    <trip id="moto68" type="moto_motorcycle" depart="1152.03" departLane="best" departSpeed="max" from="A2B2" to="D1E1"/>
    <trip id="moto69" type="moto_motorcycle" depart="1168.97" departLane="best" from="D2D1" to="B2A2"/>
    <trip id="moto70" type="moto_motorcycle" depart="1185.91" departLane="best" from="C2B2" to="C3B3"/>
    <trip id="moto71" type="moto_motorcycle" depart="1202.85" departLane="best" from="B2C2" to="D2E2"/>
    <trip id="moto72" type="moto_motorcycle" depart="1219.80" departLane="best" from="C1C2" to="B2C2"/>
    <trip id="moto73" type="moto_motorcycle" depart="1236.74" departLane="best" from="C2D2" to="D1E1"/>
    <trip id="moto74" type="moto_motorcycle" depart="1253.68" departLane="best" from="B1C1" to="B3B4"/>
    <trip id="moto75" type="moto_motorcycle" depart="1270.62" departLane="best" departSpeed="max" from="E3D3" to="D1C1"/>
    <trip id="moto76" type="moto_motorcycle" depart="1287.56" departLane="best" from="C1D1" to="C2C3"/>
    <trip id="moto77" type="moto_motorcycle" depart="1304.50" departLane="best" departSpeed="max" from="A3B3" to="B2C2"/>
    <trip id="moto78" type="moto_motorcycle" depart="1321.45" departLane="best" departSpeed="max" from="B4B3" to="C3C4"/>
    <trip id="moto79" type="moto_motorcycle" depart="1338.39" departLane="best" from="B2B3" to="B2C2"/>
    <trip id="moto80" type="moto_motorcycle" depart="1355.33" departLane="best" departSpeed="max" from="A2B2" to="C3D3"/>
    <trip id="moto81" type="moto_motorcycle" depart="1372.27" departLane="best" from="B2B1" to="D3D2"/>
    <trip id="moto82" type="moto_motorcycle" depart="1389.21" departLane="best" departSpeed="max" from="D4D3" to="B1B0"/>
    <trip id="moto83" type="moto_motorcycle" depart="1406.15" departLane="best" from="B2B3" to="D1D0"/>
    <trip id="moto84" type="moto_motorcycle" depart="1423.09" departLane="best" from="B2B1" to="B2A2"/>
    <trip id="moto85" type="moto_motorcycle" depart="1440.04" departLane="best" departSpeed="max" from="E2D2" to="C3C2"/>
    <trip id="moto86" type="moto_motorcycle" depart="1456.98" departLane="best" from="C2B2" to="D2C2"/>
    <trip id="moto87" type="moto_motorcycle" depart="1473.92" departLane="best" from="D3C3" to="B2B3"/>
    <trip id="moto88" type="moto_motorcycle" depart="1490.86" departLane="best" departSpeed="max" from="A3B3" to="C1C2"/>
    <trip id="moto89" type="moto_motorcycle" depart="1507.80" departLane="best" from="C1C2" to="C2B2"/>
    <trip id="moto90" type="moto_motorcycle" depart="1524.74" departLane="best" from="D1D2" to="D1D0"/>
    <trip id="moto91" type="moto_motorcycle" depart="1541.69" departLane="best" departSpeed="max" from="E3D3" to="B1B2"/>
    <trip id="moto92" type="moto_motorcycle" depart="1558.63" departLane="best" from="C1B1" to="B3C3"/>
    <trip id="moto93" type="moto_motorcycle" depart="1575.57" departLane="best" departSpeed="max" from="D4D3" to="B3A3"/>
    <trip id="moto94" type="moto_motorcycle" depart="1592.51" departLane="best" from="B1C1" to="C1D1"/>
    <trip id="moto95" type="moto_motorcycle" depart="1609.45" departLane="best" from="C1C2" to="B3B2"/>
    <trip id="moto96" type="moto_motorcycle" depart="1626.39" departLane="best" from="B2B3" to="D3D4"/>
    <trip id="moto97" type="moto_motorcycle" depart="1643.34" departLane="best" from="C1D1" to="D2E2"/>
    <trip id="moto98" type="moto_motorcycle" depart="1660.28" departLane="best" from="C3B3" to="B1B0"/>
    <trip id="moto99" type="moto_motorcycle" depart="1677.22" departLane="best" departSpeed="max" from="E3D3" to="D2E2"/>
    <trip id="moto100" type="moto_motorcycle" depart="1694.16" departLane="best" departSpeed="max" from="E3D3" to="D3D4"/>
    <trip id="moto101" type="moto_motorcycle" depart="1711.10" departLane="best" departSpeed="max" from="D4D3" to="B2A2"/>
    <trip id="moto102" type="moto_motorcycle" depart="1728.04" departLane="best" from="C2C1" to="B2C2"/>
    <trip id="moto103" type="moto_motorcycle" depart="1744.99" departLane="best" from="C1B1" to="B1B0"/>
    <trip id="moto104" type="moto_motorcycle" depart="1761.93" departLane="best" departSpeed="max" from="C0C1" to="D3E3"/>
    <trip id="moto105" type="moto_motorcycle" depart="1778.87" departLane="best" from="B2C2" to="D2C2"/>
    <trip id="moto106" type="moto_motorcycle" depart="1795.81" departLane="best" from="C1D1" to="C1C2"/>
    <trip id="moto107" type="moto_motorcycle" depart="1812.75" departLane="best" departSpeed="max" from="E2D2" to="D3E3"/>
    <trip id="moto108" type="moto_motorcycle" depart="1829.69" departLane="best" from="C3B3" to="D1D2"/>
    <trip id="moto109" type="moto_motorcycle" depart="1846.63" departLane="best" departSpeed="max" from="B0B1" to="B3B4"/>
    <trip id="moto110" type="moto_motorcycle" depart="1863.58" departLane="best" departSpeed="max" from="E3D3" to="C3C2"/>
    <trip id="moto111" type="moto_motorcycle" depart="1880.52" departLane="best" from="C3B3" to="D1E1"/>
    <trip id="moto112" type="moto_motorcycle" depart="1897.46" departLane="best" departSpeed="max" from="A2B2" to="C3C4"/>
    <trip id="moto113" type="moto_motorcycle" depart="1914.40" departLane="best" from="C2C3" to="D2E2"/>
    <trip id="moto114" type="moto_motorcycle" depart="1931.34" departLane="best" departSpeed="max" from="B0B1" to="D3E3"/>
    <trip id="moto115" type="moto_motorcycle" depart="1948.28" departLane="best" departSpeed="max" from="A2B2" to="B2B1"/>
    <trip id="moto116" type="moto_motorcycle" depart="1965.23" departLane="best" from="C3D3" to="D1D0"/>
    <trip id="moto117" type="moto_motorcycle" depart="1982.17" departLane="best" from="B2B3" to="B1C1"/>
    <trip id="moto118" type="moto_motorcycle" depart="1999.11" departLane="best" departSpeed="max" from="E1D1" to="B3A3"/>
    <trip id="moto119" type="moto_motorcycle" depart="2016.05" departLane="best" from="C3D3" to="C3C4"/>
    <trip id="moto120" type="moto_motorcycle" depart="2032.99" departLane="best" from="C1C2" to="C3C4"/>
    <trip id="moto121" type="moto_motorcycle" depart="2049.93" departLane="best" from="C2D2" to="D3D4"/>
    <trip id="moto122" type="moto_motorcycle" depart="2066.88" departLane="best" from="B1C1" to="D1D2"/>
    <trip id="moto123" type="moto_motorcycle" depart="2083.82" departLane="best" from="B2B3" to="C1C0"/>
    <trip id="moto124" type="moto_motorcycle" depart="2100.76" departLane="best" departSpeed="max" from="D0D1" to="B3B4"/>
    <trip id="moto125" type="moto_motorcycle" depart="2117.70" departLane="best" departSpeed="max" from="B4B3" to="D1E1"/>
    <trip id="moto126" type="moto_motorcycle" depart="2134.64" departLane="best" departSpeed="max" from="A2B2" to="C1D1"/>
    <trip id="moto127" type="moto_motorcycle" depart="2151.58" departLane="best" departSpeed="max" from="E3D3" to="D3E3"/>
    <trip id="moto128" type="moto_motorcycle" depart="2168.53" departLane="best" departSpeed="max" from="A2B2" to="B2C2"/>
    <trip id="moto129" type="moto_motorcycle" depart="2185.47" departLane="best" from="B2C2" to="D3D4"/>
    <trip id="moto130" type="moto_motorcycle" depart="2202.41" departLane="best" departSpeed="max" from="E1D1" to="D3C3"/>
    <trip id="moto131" type="moto_motorcycle" depart="2219.35" departLane="best" departSpeed="max" from="C0C1" to="B2A2"/>
    <trip id="moto132" type="moto_motorcycle" depart="2236.29" departLane="best" departSpeed="max" from="D4D3" to="D1D0"/>
    <trip id="moto133" type="moto_motorcycle" depart="2253.23" departLane="best" departSpeed="max" from="C4C3" to="D3E3"/>
    <trip id="moto134" type="moto_motorcycle" depart="2270.17" departLane="best" departSpeed="max" from="D0D1" to="B1A1"/>
    <trip id="moto135" type="moto_motorcycle" depart="2287.12" departLane="best" from="D3D2" to="B3B4"/>
    <trip id="moto136" type="moto_motorcycle" depart="2304.06" departLane="best" departSpeed="max" from="D0D1" to="D3D4"/>
    <trip id="moto137" type="moto_motorcycle" depart="2321.00" departLane="best" departSpeed="max" from="B0B1" to="B1C1"/>
    <trip id="moto138" type="moto_motorcycle" depart="2337.94" departLane="best" departSpeed="max" from="A3B3" to="C3B3"/>
    <trip id="moto139" type="moto_motorcycle" depart="2354.88" departLane="best" from="B3B2" to="C3C4"/>
    <trip id="moto140" type="moto_motorcycle" depart="2371.82" departLane="best" from="D1D2" to="B2B3"/>
    <trip id="moto141" type="moto_motorcycle" depart="2388.77" departLane="best" departSpeed="max" from="C4C3" to="B3A3"/>
    <trip id="moto142" type="moto_motorcycle" depart="2405.71" departLane="best" from="C2C1" to="D3D2"/>
    <trip id="moto143" type="moto_motorcycle" depart="2422.65" departLane="best" departSpeed="max" from="D4D3" to="B1B2"/>
    <trip id="moto144" type="moto_motorcycle" depart="2439.59" departLane="best" from="C1C2" to="B3B2"/>
    <trip id="moto145" type="moto_motorcycle" depart="2456.53" departLane="best" departSpeed="max" from="A1B1" to="D2C2"/>
    <trip id="moto146" type="moto_motorcycle" depart="2473.47" departLane="best" departSpeed="max" from="C4C3" to="B3A3"/>
    <trip id="moto147" type="moto_motorcycle" depart="2490.42" departLane="best" from="D2C2" to="C3B3"/>
    <trip id="moto148" type="moto_motorcycle" depart="2507.36" departLane="best" from="C1C2" to="B1A1"/>
    <trip id="moto149" type="moto_motorcycle" depart="2524.30" departLane="best" departSpeed="max" from="A2B2" to="D3C3"/>
    <trip id="moto150" type="moto_motorcycle" depart="2541.24" departLane="best" departSpeed="max" from="E1D1" to="C3B3"/>
    <trip id="moto151" type="moto_motorcycle" depart="2558.18" departLane="best" departSpeed="max" from="D4D3" to="C3C2"/>
    <trip id="moto152" type="moto_motorcycle" depart="2575.12" departLane="best" departSpeed="max" from="B0B1" to="B2A2"/>
    <trip id="moto153" type="moto_motorcycle" depart="2592.07" departLane="best" from="B3C3" to="D3D2"/>
    <trip id="moto154" type="moto_motorcycle" depart="2609.01" departLane="best" from="D3C3" to="D2E2"/>
    <trip id="moto155" type="moto_motorcycle" depart="2625.95" departLane="best" departSpeed="max" from="E1D1" to="B2C2"/>
    <trip id="moto156" type="moto_motorcycle" depart="2642.89" departLane="best" from="B2B3" to="B1B2"/>
    <trip id="moto157" type="moto_motorcycle" depart="2659.83" departLane="best" from="D2D3" to="D3C3"/>
    <trip id="moto158" type="moto_motorcycle" depart="2676.77" departLane="best" from="C1B1" to="C3C4"/>
    <trip id="moto159" type="moto_motorcycle" depart="2693.71" departLane="best" departSpeed="max" from="B0B1" to="D3D4"/>
    <trip id="moto160" type="moto_motorcycle" depart="2710.66" departLane="best" departSpeed="max" from="D4D3" to="D3E3"/>
    <trip id="moto161" type="moto_motorcycle" depart="2727.60" departLane="best" from="D3C3" to="D3C3"/>
    <trip id="moto162" type="moto_motorcycle" depart="2744.54" departLane="best" departSpeed="max" from="A1B1" to="D1E1"/>
    <trip id="moto163" type="moto_motorcycle" depart="2761.48" departLane="best" departSpeed="max" from="B4B3" to="D3D4"/>
    <trip id="moto164" type="moto_motorcycle" depart="2778.42" departLane="best" from="D3C3" to="D2E2"/>
    <trip id="moto165" type="moto_motorcycle" depart="2795.36" departLane="best" from="D3C3" to="B3A3"/>
    <trip id="moto166" type="moto_motorcycle" depart="2812.31" departLane="best" from="D2D3" to="B1C1"/>
    <trip id="moto167" type="moto_motorcycle" depart="2829.25" departLane="best" departSpeed="max" from="D4D3" to="D2E2"/>
    <trip id="moto168" type="moto_motorcycle" depart="2846.19" departLane="best" from="B2B1" to="D2D3"/>
    <trip id="moto169" type="moto_motorcycle" depart="2863.13" departLane="best" from="C2B2" to="B3B4"/>
    <trip id="moto170" type="moto_motorcycle" depart="2880.07" departLane="best" from="D3C3" to="B2C2"/>
    <trip id="moto171" type="moto_motorcycle" depart="2897.01" departLane="best" departSpeed="max" from="A1B1" to="B2B3"/>
    <trip id="moto172" type="moto_motorcycle" depart="2913.96" departLane="best" departSpeed="max" from="B4B3" to="D2E2"/>
    <trip id="moto173" type="moto_motorcycle" depart="2930.90" departLane="best" departSpeed="max" from="E3D3" to="B3B2"/>
    <trip id="moto174" type="moto_motorcycle" depart="2947.84" departLane="best" departSpeed="max" from="C4C3" to="C1C0"/>
    <trip id="moto175" type="moto_motorcycle" depart="2964.78" departLane="best" departSpeed="max" from="E3D3" to="C2D2"/>
    <trip id="moto176" type="moto_motorcycle" depart="2981.72" departLane="best" departSpeed="max" from="E2D2" to="B1C1"/>
    <trip id="moto177" type="moto_motorcycle" depart="2998.66" departLane="best" departSpeed="max" from="E3D3" to="B2B1"/>
    <trip id="moto178" type="moto_motorcycle" depart="3015.61" departLane="best" departSpeed="max" from="E3D3" to="B3A3"/>
    <trip id="moto179" type="moto_motorcycle" depart="3032.55" departLane="best" departSpeed="max" from="A3B3" to="C1C2"/>
    <trip id="moto180" type="moto_motorcycle" depart="3049.49" departLane="best" from="D1D2" to="B3B4"/>
    <trip id="moto181" type="moto_motorcycle" depart="3066.43" departLane="best" departSpeed="max" from="C4C3" to="C2C3"/>
    <trip id="moto182" type="moto_motorcycle" depart="3083.37" departLane="best" departSpeed="max" from="C0C1" to="C3C2"/>
    <trip id="moto183" type="moto_motorcycle" depart="3100.31" departLane="best" from="B2C2" to="D1D2"/>
    <trip id="moto184" type="moto_motorcycle" depart="3117.25" departLane="best" departSpeed="max" from="A1B1" to="D3D4"/>
    <trip id="moto185" type="moto_motorcycle" depart="3134.20" departLane="best" from="C2D2" to="D1D2"/>
    <trip id="moto186" type="moto_motorcycle" depart="3151.14" departLane="best" from="D2C2" to="D1D0"/>
    <trip id="moto187" type="moto_motorcycle" depart="3168.08" departLane="best" departSpeed="max" from="C0C1" to="B1B0"/>
    <trip id="moto188" type="moto_motorcycle" depart="3185.02" departLane="best" departSpeed="max" from="D0D1" to="B3B4"/>
    <trip id="moto189" type="moto_motorcycle" depart="3201.96" departLane="best" departSpeed="max" from="B4B3" to="D2E2"/>
    <trip id="moto190" type="moto_motorcycle" depart="3218.90" departLane="best" from="D1D2" to="B3B4"/>
    <trip id="moto191" type="moto_motorcycle" depart="3235.85" departLane="best" from="B3C3" to="C1C0"/>
    <trip id="moto192" type="moto_motorcycle" depart="3252.79" departLane="best" from="C1B1" to="B3B4"/>
    <trip id="moto193" type="moto_motorcycle" depart="3269.73" departLane="best" departSpeed="max" from="B0B1" to="C1C2"/>
    <trip id="moto194" type="moto_motorcycle" depart="3286.67" departLane="best" departSpeed="max" from="E2D2" to="D1D0"/>
    <trip id="moto195" type="moto_motorcycle" depart="3303.61" departLane="best" departSpeed="max" from="E1D1" to="C3C4"/>
    <trip id="moto196" type="moto_motorcycle" depart="3320.55" departLane="best" from="B3C3" to="C3B3"/>
    <trip id="moto197" type="moto_motorcycle" depart="3337.50" departLane="best" departSpeed="max" from="A1B1" to="B3B2"/>
    <trip id="moto198" type="moto_motorcycle" depart="3354.44" departLane="best" from="C1C2" to="C3C2"/>
    <trip id="moto199" type="moto_motorcycle" depart="3371.38" departLane="best" departSpeed="max" from="D0D1" to="C2B2"/>
    <trip id="moto200" type="moto_motorcycle" depart="3388.32" departLane="best" from="C1D1" to="B2C2"/>
    <trip id="moto201" type="moto_motorcycle" depart="3405.26" departLane="best" from="C2B2" to="D3D2"/>
    <trip id="moto202" type="moto_motorcycle" depart="3422.20" departLane="best" from="D3C3" to="B2B1"/>
    <trip id="moto203" type="moto_motorcycle" depart="3439.15" departLane="best" departSpeed="max" from="A3B3" to="C2C3"/>
    <trip id="moto204" type="moto_motorcycle" depart="3456.09" departLane="best" departSpeed="max" from="C4C3" to="B3C3"/>
    <trip id="moto205" type="moto_motorcycle" depart="3473.03" departLane="best" from="D3D2" to="D1E1"/>
    <trip id="moto206" type="moto_motorcycle" depart="3489.97" departLane="best" departSpeed="max" from="D0D1" to="B2C2"/>
    <trip id="moto207" type="moto_motorcycle" depart="3506.91" departLane="best" from="B1C1" to="B1A1"/>
    <trip id="moto208" type="moto_motorcycle" depart="3523.85" departLane="best" from="B2B3" to="C2B2"/>
    <trip id="moto209" type="moto_motorcycle" depart="3540.80" departLane="best" departSpeed="max" from="D4D3" to="B1B0"/>
    <trip id="moto210" type="moto_motorcycle" depart="3557.74" departLane="best" from="C1B1" to="C3D3"/>
    <trip id="moto211" type="moto_motorcycle" depart="3574.68" departLane="best" from="B1C1" to="D1D0"/>
    <trip id="moto212" type="moto_motorcycle" depart="3591.62" departLane="best" from="C2C1" to="B3A3"/>
</routes>
