<?xml version="1.0" encoding="UTF-8"?>

<!-- generated on mar 03 dic 2019 17:16:31 -03 by Eclipse SUMO netedit Version 1.3.1
<configuration xmlns:xsi="http://www.w3.org/2001/XMLSchema-instance" xsi:noNamespaceSchemaLocation="http://sumo.dlr.de/xsd/netconvertConfiguration.xsd">

    <input>
        <sumo-net-file value="optimal.net.xml"/>
    </input>

    <output>
        <output-file value="optimal.net.xml"/>
    </output>

    <processing>
        <geometry.max-grade.fix value="false"/>
        <offset.disable-normalization value="true"/>
        <opposites.guess.fix-lengths value="true"/>
        <lefthand value="false"/>
    </processing>

    <junctions>
        <no-turnarounds value="true"/>
        <junctions.corner-detail value="5"/>
        <junctions.limit-turn-speed value="5.5"/>
        <rectangular-lane-cut value="false"/>
    </junctions>

    <pedestrian>
        <walkingareas value="false"/>
    </pedestrian>

</configuration>
-->

<net version="1.3" junctionCornerDetail="5" limitTurnSpeed="5.50" xmlns:xsi="http://www.w3.org/2001/XMLSchema-instance" xsi:noNamespaceSchemaLocation="http://sumo.dlr.de/xsd/net_file.xsd">

    <location netOffset="0.00,0.00" convBoundary="0.00,0.00,400.00,400.00" origBoundary="0.00,0.00,400.00,400.00" projParameter="!"/>

    <edge id=":intersection/0002_0" function="internal">
        <lane id=":intersection/0002_0_0" index="0" speed="6.51" length="9.03" shape="95.20,310.40 94.85,307.95 93.80,306.20 92.05,305.15 89.60,304.80"/>
    </edge>
    <edge id=":intersection/0002_1" function="internal">
        <lane id=":intersection/0002_1_0" index="0" speed="13.89" length="20.80" shape="95.20,310.40 95.20,289.60"/>
        <lane id=":intersection/0002_1_1" index="1" speed="13.89" length="20.80" shape="98.40,310.40 98.40,289.60"/>
    </edge>
    <edge id=":intersection/0002_3" function="internal">
        <lane id=":intersection/0002_3_0" index="0" speed="9.26" length="19.35" shape="98.40,310.40 99.15,305.15 101.40,301.40 105.15,299.15 110.40,298.40"/>
    </edge>
    <edge id=":intersection/0002_4" function="internal">
        <lane id=":intersection/0002_4_0" index="0" speed="6.51" length="9.03" shape="110.40,304.80 107.95,305.15 106.20,306.20 105.15,307.95 104.80,310.40"/>
    </edge>
    <edge id=":intersection/0002_5" function="internal">
        <lane id=":intersection/0002_5_0" index="0" speed="13.89" length="20.80" shape="110.40,304.80 89.60,304.80"/>
        <lane id=":intersection/0002_5_1" index="1" speed="13.89" length="20.80" shape="110.40,301.60 89.60,301.60"/>
    </edge>
    <edge id=":intersection/0002_7" function="internal">
        <lane id=":intersection/0002_7_0" index="0" speed="9.26" length="19.35" shape="110.40,301.60 105.15,300.85 101.40,298.60 99.15,294.85 98.40,289.60"/>
    </edge>
    <edge id=":intersection/0002_8" function="internal">
        <lane id=":intersection/0002_8_0" index="0" speed="6.51" length="9.03" shape="104.80,289.60 105.15,292.05 106.20,293.80 107.95,294.85 110.40,295.20"/>
    </edge>
    <edge id=":intersection/0002_9" function="internal">
        <lane id=":intersection/0002_9_0" index="0" speed="13.89" length="20.80" shape="104.80,289.60 104.80,310.40"/>
        <lane id=":intersection/0002_9_1" index="1" speed="13.89" length="20.80" shape="101.60,289.60 101.60,310.40"/>
    </edge>
    <edge id=":intersection/0002_11" function="internal">
        <lane id=":intersection/0002_11_0" index="0" speed="9.26" length="19.35" shape="101.60,289.60 100.85,294.85 98.60,298.60 94.85,300.85 89.60,301.60"/>
    </edge>
    <edge id=":intersection/0002_12" function="internal">
        <lane id=":intersection/0002_12_0" index="0" speed="6.51" length="9.03" shape="89.60,295.20 92.05,294.85 93.80,293.80 94.85,292.05 95.20,289.60"/>
    </edge>
    <edge id=":intersection/0002_13" function="internal">
        <lane id=":intersection/0002_13_0" index="0" speed="13.89" length="20.80" shape="89.60,295.20 110.40,295.20"/>
        <lane id=":intersection/0002_13_1" index="1" speed="13.89" length="20.80" shape="89.60,298.40 110.40,298.40"/>
    </edge>
    <edge id=":intersection/0002_15" function="internal">
        <lane id=":intersection/0002_15_0" index="0" speed="9.26" length="19.35" shape="89.60,298.40 94.85,299.15 98.60,301.40 100.85,305.15 101.60,310.40"/>
    </edge>
    <edge id=":intersection/0003_0" function="internal">
        <lane id=":intersection/0003_0_0" index="0" speed="6.51" length="9.03" shape="195.20,310.40 194.85,307.95 193.80,306.20 192.05,305.15 189.60,304.80"/>
    </edge>
    <edge id=":intersection/0003_1" function="internal">
        <lane id=":intersection/0003_1_0" index="0" speed="13.89" length="20.80" shape="195.20,310.40 195.20,289.60"/>
        <lane id=":intersection/0003_1_1" index="1" speed="13.89" length="20.80" shape="198.40,310.40 198.40,289.60"/>
    </edge>
    <edge id=":intersection/0003_3" function="internal">
        <lane id=":intersection/0003_3_0" index="0" speed="9.26" length="19.35" shape="198.40,310.40 199.15,305.15 201.40,301.40 205.15,299.15 210.40,298.40"/>
    </edge>
    <edge id=":intersection/0003_4" function="internal">
        <lane id=":intersection/0003_4_0" index="0" speed="6.51" length="9.03" shape="210.40,304.80 207.95,305.15 206.20,306.20 205.15,307.95 204.80,310.40"/>
    </edge>
    <edge id=":intersection/0003_5" function="internal">
        <lane id=":intersection/0003_5_0" index="0" speed="13.89" length="20.80" shape="210.40,304.80 189.60,304.80"/>
        <lane id=":intersection/0003_5_1" index="1" speed="13.89" length="20.80" shape="210.40,301.60 189.60,301.60"/>
    </edge>
    <edge id=":intersection/0003_7" function="internal">
        <lane id=":intersection/0003_7_0" index="0" speed="9.26" length="19.35" shape="210.40,301.60 205.15,300.85 201.40,298.60 199.15,294.85 198.40,289.60"/>
    </edge>
    <edge id=":intersection/0003_8" function="internal">
        <lane id=":intersection/0003_8_0" index="0" speed="6.51" length="9.03" shape="204.80,289.60 205.15,292.05 206.20,293.80 207.95,294.85 210.40,295.20"/>
    </edge>
    <edge id=":intersection/0003_9" function="internal">
        <lane id=":intersection/0003_9_0" index="0" speed="13.89" length="20.80" shape="204.80,289.60 204.80,310.40"/>
        <lane id=":intersection/0003_9_1" index="1" speed="13.89" length="20.80" shape="201.60,289.60 201.60,310.40"/>
    </edge>
    <edge id=":intersection/0003_11" function="internal">
        <lane id=":intersection/0003_11_0" index="0" speed="9.26" length="19.35" shape="201.60,289.60 200.85,294.85 198.60,298.60 194.85,300.85 189.60,301.60"/>
    </edge>
    <edge id=":intersection/0003_12" function="internal">
        <lane id=":intersection/0003_12_0" index="0" speed="6.51" length="9.03" shape="189.60,295.20 192.05,294.85 193.80,293.80 194.85,292.05 195.20,289.60"/>
    </edge>
    <edge id=":intersection/0003_13" function="internal">
        <lane id=":intersection/0003_13_0" index="0" speed="13.89" length="20.80" shape="189.60,295.20 210.40,295.20"/>
        <lane id=":intersection/0003_13_1" index="1" speed="13.89" length="20.80" shape="189.60,298.40 210.40,298.40"/>
    </edge>
    <edge id=":intersection/0003_15" function="internal">
        <lane id=":intersection/0003_15_0" index="0" speed="9.26" length="19.35" shape="189.60,298.40 194.85,299.15 198.60,301.40 200.85,305.15 201.60,310.40"/>
    </edge>
    <edge id=":intersection/0004_0" function="internal">
        <lane id=":intersection/0004_0_0" index="0" speed="6.51" length="9.03" shape="295.20,310.40 294.85,307.95 293.80,306.20 292.05,305.15 289.60,304.80"/>
    </edge>
    <edge id=":intersection/0004_1" function="internal">
        <lane id=":intersection/0004_1_0" index="0" speed="13.89" length="20.80" shape="295.20,310.40 295.20,289.60"/>
        <lane id=":intersection/0004_1_1" index="1" speed="13.89" length="20.80" shape="298.40,310.40 298.40,289.60"/>
    </edge>
    <edge id=":intersection/0004_3" function="internal">
        <lane id=":intersection/0004_3_0" index="0" speed="9.26" length="19.35" shape="298.40,310.40 299.15,305.15 301.40,301.40 305.15,299.15 310.40,298.40"/>
    </edge>
    <edge id=":intersection/0004_4" function="internal">
        <lane id=":intersection/0004_4_0" index="0" speed="6.51" length="9.03" shape="310.40,304.80 307.95,305.15 306.20,306.20 305.15,307.95 304.80,310.40"/>
    </edge>
    <edge id=":intersection/0004_5" function="internal">
        <lane id=":intersection/0004_5_0" index="0" speed="13.89" length="20.80" shape="310.40,304.80 289.60,304.80"/>
        <lane id=":intersection/0004_5_1" index="1" speed="13.89" length="20.80" shape="310.40,301.60 289.60,301.60"/>
    </edge>
    <edge id=":intersection/0004_7" function="internal">
        <lane id=":intersection/0004_7_0" index="0" speed="9.26" length="19.35" shape="310.40,301.60 305.15,300.85 301.40,298.60 299.15,294.85 298.40,289.60"/>
    </edge>
    <edge id=":intersection/0004_8" function="internal">
        <lane id=":intersection/0004_8_0" index="0" speed="6.51" length="9.03" shape="304.80,289.60 305.15,292.05 306.20,293.80 307.95,294.85 310.40,295.20"/>
    </edge>
    <edge id=":intersection/0004_9" function="internal">
        <lane id=":intersection/0004_9_0" index="0" speed="13.89" length="20.80" shape="304.80,289.60 304.80,310.40"/>
        <lane id=":intersection/0004_9_1" index="1" speed="13.89" length="20.80" shape="301.60,289.60 301.60,310.40"/>
    </edge>
    <edge id=":intersection/0004_11" function="internal">
        <lane id=":intersection/0004_11_0" index="0" speed="9.26" length="19.35" shape="301.60,289.60 300.85,294.85 298.60,298.60 294.85,300.85 289.60,301.60"/>
    </edge>
    <edge id=":intersection/0004_12" function="internal">
        <lane id=":intersection/0004_12_0" index="0" speed="6.51" length="9.03" shape="289.60,295.20 292.05,294.85 293.80,293.80 294.85,292.05 295.20,289.60"/>
    </edge>
    <edge id=":intersection/0004_13" function="internal">
        <lane id=":intersection/0004_13_0" index="0" speed="13.89" length="20.80" shape="289.60,295.20 310.40,295.20"/>
        <lane id=":intersection/0004_13_1" index="1" speed="13.89" length="20.80" shape="289.60,298.40 310.40,298.40"/>
    </edge>
    <edge id=":intersection/0004_15" function="internal">
        <lane id=":intersection/0004_15_0" index="0" speed="9.26" length="19.35" shape="289.60,298.40 294.85,299.15 298.60,301.40 300.85,305.15 301.60,310.40"/>
    </edge>
    <edge id=":intersection/0005_0" function="internal">
        <lane id=":intersection/0005_0_0" index="0" speed="6.51" length="9.03" shape="95.20,210.40 94.85,207.95 93.80,206.20 92.05,205.15 89.60,204.80"/>
    </edge>
    <edge id=":intersection/0005_1" function="internal">
        <lane id=":intersection/0005_1_0" index="0" speed="13.89" length="20.80" shape="95.20,210.40 95.20,189.60"/>
        <lane id=":intersection/0005_1_1" index="1" speed="13.89" length="20.80" shape="98.40,210.40 98.40,189.60"/>
    </edge>
    <edge id=":intersection/0005_3" function="internal">
        <lane id=":intersection/0005_3_0" index="0" speed="9.26" length="19.35" shape="98.40,210.40 99.15,205.15 101.40,201.40 105.15,199.15 110.40,198.40"/>
    </edge>
    <edge id=":intersection/0005_4" function="internal">
        <lane id=":intersection/0005_4_0" index="0" speed="6.51" length="9.03" shape="110.40,204.80 107.95,205.15 106.20,206.20 105.15,207.95 104.80,210.40"/>
    </edge>
    <edge id=":intersection/0005_5" function="internal">
        <lane id=":intersection/0005_5_0" index="0" speed="13.89" length="20.80" shape="110.40,204.80 89.60,204.80"/>
        <lane id=":intersection/0005_5_1" index="1" speed="13.89" length="20.80" shape="110.40,201.60 89.60,201.60"/>
    </edge>
    <edge id=":intersection/0005_7" function="internal">
        <lane id=":intersection/0005_7_0" index="0" speed="9.26" length="19.35" shape="110.40,201.60 105.15,200.85 101.40,198.60 99.15,194.85 98.40,189.60"/>
    </edge>
    <edge id=":intersection/0005_8" function="internal">
        <lane id=":intersection/0005_8_0" index="0" speed="6.51" length="9.03" shape="104.80,189.60 105.15,192.05 106.20,193.80 107.95,194.85 110.40,195.20"/>
    </edge>
    <edge id=":intersection/0005_9" function="internal">
        <lane id=":intersection/0005_9_0" index="0" speed="13.89" length="20.80" shape="104.80,189.60 104.80,210.40"/>
        <lane id=":intersection/0005_9_1" index="1" speed="13.89" length="20.80" shape="101.60,189.60 101.60,210.40"/>
    </edge>
    <edge id=":intersection/0005_11" function="internal">
        <lane id=":intersection/0005_11_0" index="0" speed="9.26" length="19.35" shape="101.60,189.60 100.85,194.85 98.60,198.60 94.85,200.85 89.60,201.60"/>
    </edge>
    <edge id=":intersection/0005_12" function="internal">
        <lane id=":intersection/0005_12_0" index="0" speed="6.51" length="9.03" shape="89.60,195.20 92.05,194.85 93.80,193.80 94.85,192.05 95.20,189.60"/>
    </edge>
    <edge id=":intersection/0005_13" function="internal">
        <lane id=":intersection/0005_13_0" index="0" speed="13.89" length="20.80" shape="89.60,195.20 110.40,195.20"/>
        <lane id=":intersection/0005_13_1" index="1" speed="13.89" length="20.80" shape="89.60,198.40 110.40,198.40"/>
    </edge>
    <edge id=":intersection/0005_15" function="internal">
        <lane id=":intersection/0005_15_0" index="0" speed="9.26" length="19.35" shape="89.60,198.40 94.85,199.15 98.60,201.40 100.85,205.15 101.60,210.40"/>
    </edge>
    <edge id=":intersection/0006_0" function="internal">
        <lane id=":intersection/0006_0_0" index="0" speed="6.51" length="9.03" shape="195.20,210.40 194.85,207.95 193.80,206.20 192.05,205.15 189.60,204.80"/>
    </edge>
    <edge id=":intersection/0006_1" function="internal">
        <lane id=":intersection/0006_1_0" index="0" speed="13.89" length="20.80" shape="195.20,210.40 195.20,189.60"/>
        <lane id=":intersection/0006_1_1" index="1" speed="13.89" length="20.80" shape="198.40,210.40 198.40,189.60"/>
    </edge>
    <edge id=":intersection/0006_3" function="internal">
        <lane id=":intersection/0006_3_0" index="0" speed="9.26" length="19.35" shape="198.40,210.40 199.15,205.15 201.40,201.40 205.15,199.15 210.40,198.40"/>
    </edge>
    <edge id=":intersection/0006_4" function="internal">
        <lane id=":intersection/0006_4_0" index="0" speed="6.51" length="9.03" shape="210.40,204.80 207.95,205.15 206.20,206.20 205.15,207.95 204.80,210.40"/>
    </edge>
    <edge id=":intersection/0006_5" function="internal">
        <lane id=":intersection/0006_5_0" index="0" speed="13.89" length="20.80" shape="210.40,204.80 189.60,204.80"/>
        <lane id=":intersection/0006_5_1" index="1" speed="13.89" length="20.80" shape="210.40,201.60 189.60,201.60"/>
    </edge>
    <edge id=":intersection/0006_7" function="internal">
        <lane id=":intersection/0006_7_0" index="0" speed="9.26" length="19.35" shape="210.40,201.60 205.15,200.85 201.40,198.60 199.15,194.85 198.40,189.60"/>
    </edge>
    <edge id=":intersection/0006_8" function="internal">
        <lane id=":intersection/0006_8_0" index="0" speed="6.51" length="9.03" shape="204.80,189.60 205.15,192.05 206.20,193.80 207.95,194.85 210.40,195.20"/>
    </edge>
    <edge id=":intersection/0006_9" function="internal">
        <lane id=":intersection/0006_9_0" index="0" speed="13.89" length="20.80" shape="204.80,189.60 204.80,210.40"/>
        <lane id=":intersection/0006_9_1" index="1" speed="13.89" length="20.80" shape="201.60,189.60 201.60,210.40"/>
    </edge>
    <edge id=":intersection/0006_11" function="internal">
        <lane id=":intersection/0006_11_0" index="0" speed="9.26" length="19.35" shape="201.60,189.60 200.85,194.85 198.60,198.60 194.85,200.85 189.60,201.60"/>
    </edge>
    <edge id=":intersection/0006_12" function="internal">
        <lane id=":intersection/0006_12_0" index="0" speed="6.51" length="9.03" shape="189.60,195.20 192.05,194.85 193.80,193.80 194.85,192.05 195.20,189.60"/>
    </edge>
    <edge id=":intersection/0006_13" function="internal">
        <lane id=":intersection/0006_13_0" index="0" speed="13.89" length="20.80" shape="189.60,195.20 210.40,195.20"/>
        <lane id=":intersection/0006_13_1" index="1" speed="13.89" length="20.80" shape="189.60,198.40 210.40,198.40"/>
    </edge>
    <edge id=":intersection/0006_15" function="internal">
        <lane id=":intersection/0006_15_0" index="0" speed="9.26" length="19.35" shape="189.60,198.40 194.85,199.15 198.60,201.40 200.85,205.15 201.60,210.40"/>
    </edge>
    <edge id=":intersection/0007_0" function="internal">
        <lane id=":intersection/0007_0_0" index="0" speed="6.51" length="9.03" shape="295.20,210.40 294.85,207.95 293.80,206.20 292.05,205.15 289.60,204.80"/>
    </edge>
    <edge id=":intersection/0007_1" function="internal">
        <lane id=":intersection/0007_1_0" index="0" speed="13.89" length="20.80" shape="295.20,210.40 295.20,189.60"/>
        <lane id=":intersection/0007_1_1" index="1" speed="13.89" length="20.80" shape="298.40,210.40 298.40,189.60"/>
    </edge>
    <edge id=":intersection/0007_3" function="internal">
        <lane id=":intersection/0007_3_0" index="0" speed="9.26" length="19.35" shape="298.40,210.40 299.15,205.15 301.40,201.40 305.15,199.15 310.40,198.40"/>
    </edge>
    <edge id=":intersection/0007_4" function="internal">
        <lane id=":intersection/0007_4_0" index="0" speed="6.51" length="9.03" shape="310.40,204.80 307.95,205.15 306.20,206.20 305.15,207.95 304.80,210.40"/>
    </edge>
    <edge id=":intersection/0007_5" function="internal">
        <lane id=":intersection/0007_5_0" index="0" speed="13.89" length="20.80" shape="310.40,204.80 289.60,204.80"/>
        <lane id=":intersection/0007_5_1" index="1" speed="13.89" length="20.80" shape="310.40,201.60 289.60,201.60"/>
    </edge>
    <edge id=":intersection/0007_7" function="internal">
        <lane id=":intersection/0007_7_0" index="0" speed="9.26" length="19.35" shape="310.40,201.60 305.15,200.85 301.40,198.60 299.15,194.85 298.40,189.60"/>
    </edge>
    <edge id=":intersection/0007_8" function="internal">
        <lane id=":intersection/0007_8_0" index="0" speed="6.51" length="9.03" shape="304.80,189.60 305.15,192.05 306.20,193.80 307.95,194.85 310.40,195.20"/>
    </edge>
    <edge id=":intersection/0007_9" function="internal">
        <lane id=":intersection/0007_9_0" index="0" speed="13.89" length="20.80" shape="304.80,189.60 304.80,210.40"/>
        <lane id=":intersection/0007_9_1" index="1" speed="13.89" length="20.80" shape="301.60,189.60 301.60,210.40"/>
    </edge>
    <edge id=":intersection/0007_11" function="internal">
        <lane id=":intersection/0007_11_0" index="0" speed="9.26" length="19.35" shape="301.60,189.60 300.85,194.85 298.60,198.60 294.85,200.85 289.60,201.60"/>
    </edge>
    <edge id=":intersection/0007_12" function="internal">
        <lane id=":intersection/0007_12_0" index="0" speed="6.51" length="9.03" shape="289.60,195.20 292.05,194.85 293.80,193.80 294.85,192.05 295.20,189.60"/>
    </edge>
    <edge id=":intersection/0007_13" function="internal">
        <lane id=":intersection/0007_13_0" index="0" speed="13.89" length="20.80" shape="289.60,195.20 310.40,195.20"/>
        <lane id=":intersection/0007_13_1" index="1" speed="13.89" length="20.80" shape="289.60,198.40 310.40,198.40"/>
    </edge>
    <edge id=":intersection/0007_15" function="internal">
        <lane id=":intersection/0007_15_0" index="0" speed="9.26" length="19.35" shape="289.60,198.40 294.85,199.15 298.60,201.40 300.85,205.15 301.60,210.40"/>
    </edge>
    <edge id=":intersection/0008_0" function="internal">
        <lane id=":intersection/0008_0_0" index="0" speed="6.51" length="9.03" shape="95.20,110.40 94.85,107.95 93.80,106.20 92.05,105.15 89.60,104.80"/>
    </edge>
    <edge id=":intersection/0008_1" function="internal">
        <lane id=":intersection/0008_1_0" index="0" speed="13.89" length="20.80" shape="95.20,110.40 95.20,89.60"/>
        <lane id=":intersection/0008_1_1" index="1" speed="13.89" length="20.80" shape="98.40,110.40 98.40,89.60"/>
    </edge>
    <edge id=":intersection/0008_3" function="internal">
        <lane id=":intersection/0008_3_0" index="0" speed="9.26" length="19.35" shape="98.40,110.40 99.15,105.15 101.40,101.40 105.15,99.15 110.40,98.40"/>
    </edge>
    <edge id=":intersection/0008_4" function="internal">
        <lane id=":intersection/0008_4_0" index="0" speed="6.51" length="9.03" shape="110.40,104.80 107.95,105.15 106.20,106.20 105.15,107.95 104.80,110.40"/>
    </edge>
    <edge id=":intersection/0008_5" function="internal">
        <lane id=":intersection/0008_5_0" index="0" speed="13.89" length="20.80" shape="110.40,104.80 89.60,104.80"/>
        <lane id=":intersection/0008_5_1" index="1" speed="13.89" length="20.80" shape="110.40,101.60 89.60,101.60"/>
    </edge>
    <edge id=":intersection/0008_7" function="internal">
        <lane id=":intersection/0008_7_0" index="0" speed="9.26" length="19.35" shape="110.40,101.60 105.15,100.85 101.40,98.60 99.15,94.85 98.40,89.60"/>
    </edge>
    <edge id=":intersection/0008_8" function="internal">
        <lane id=":intersection/0008_8_0" index="0" speed="6.51" length="9.03" shape="104.80,89.60 105.15,92.05 106.20,93.80 107.95,94.85 110.40,95.20"/>
    </edge>
    <edge id=":intersection/0008_9" function="internal">
        <lane id=":intersection/0008_9_0" index="0" speed="13.89" length="20.80" shape="104.80,89.60 104.80,110.40"/>
        <lane id=":intersection/0008_9_1" index="1" speed="13.89" length="20.80" shape="101.60,89.60 101.60,110.40"/>
    </edge>
    <edge id=":intersection/0008_11" function="internal">
        <lane id=":intersection/0008_11_0" index="0" speed="9.26" length="19.35" shape="101.60,89.60 100.85,94.85 98.60,98.60 94.85,100.85 89.60,101.60"/>
    </edge>
    <edge id=":intersection/0008_12" function="internal">
        <lane id=":intersection/0008_12_0" index="0" speed="6.51" length="9.03" shape="89.60,95.20 92.05,94.85 93.80,93.80 94.85,92.05 95.20,89.60"/>
    </edge>
    <edge id=":intersection/0008_13" function="internal">
        <lane id=":intersection/0008_13_0" index="0" speed="13.89" length="20.80" shape="89.60,95.20 110.40,95.20"/>
        <lane id=":intersection/0008_13_1" index="1" speed="13.89" length="20.80" shape="89.60,98.40 110.40,98.40"/>
    </edge>
    <edge id=":intersection/0008_15" function="internal">
        <lane id=":intersection/0008_15_0" index="0" speed="9.26" length="19.35" shape="89.60,98.40 94.85,99.15 98.60,101.40 100.85,105.15 101.60,110.40"/>
    </edge>
    <edge id=":intersection/0009_0" function="internal">
        <lane id=":intersection/0009_0_0" index="0" speed="6.51" length="9.03" shape="195.20,110.40 194.85,107.95 193.80,106.20 192.05,105.15 189.60,104.80"/>
    </edge>
    <edge id=":intersection/0009_1" function="internal">
        <lane id=":intersection/0009_1_0" index="0" speed="13.89" length="20.80" shape="195.20,110.40 195.20,89.60"/>
        <lane id=":intersection/0009_1_1" index="1" speed="13.89" length="20.80" shape="198.40,110.40 198.40,89.60"/>
    </edge>
    <edge id=":intersection/0009_3" function="internal">
        <lane id=":intersection/0009_3_0" index="0" speed="9.26" length="19.35" shape="198.40,110.40 199.15,105.15 201.40,101.40 205.15,99.15 210.40,98.40"/>
    </edge>
    <edge id=":intersection/0009_4" function="internal">
        <lane id=":intersection/0009_4_0" index="0" speed="6.51" length="9.03" shape="210.40,104.80 207.95,105.15 206.20,106.20 205.15,107.95 204.80,110.40"/>
    </edge>
    <edge id=":intersection/0009_5" function="internal">
        <lane id=":intersection/0009_5_0" index="0" speed="13.89" length="20.80" shape="210.40,104.80 189.60,104.80"/>
        <lane id=":intersection/0009_5_1" index="1" speed="13.89" length="20.80" shape="210.40,101.60 189.60,101.60"/>
    </edge>
    <edge id=":intersection/0009_7" function="internal">
        <lane id=":intersection/0009_7_0" index="0" speed="9.26" length="19.35" shape="210.40,101.60 205.15,100.85 201.40,98.60 199.15,94.85 198.40,89.60"/>
    </edge>
    <edge id=":intersection/0009_8" function="internal">
        <lane id=":intersection/0009_8_0" index="0" speed="6.51" length="9.03" shape="204.80,89.60 205.15,92.05 206.20,93.80 207.95,94.85 210.40,95.20"/>
    </edge>
    <edge id=":intersection/0009_9" function="internal">
        <lane id=":intersection/0009_9_0" index="0" speed="13.89" length="20.80" shape="204.80,89.60 204.80,110.40"/>
        <lane id=":intersection/0009_9_1" index="1" speed="13.89" length="20.80" shape="201.60,89.60 201.60,110.40"/>
    </edge>
    <edge id=":intersection/0009_11" function="internal">
        <lane id=":intersection/0009_11_0" index="0" speed="9.26" length="19.35" shape="201.60,89.60 200.85,94.85 198.60,98.60 194.85,100.85 189.60,101.60"/>
    </edge>
    <edge id=":intersection/0009_12" function="internal">
        <lane id=":intersection/0009_12_0" index="0" speed="6.51" length="9.03" shape="189.60,95.20 192.05,94.85 193.80,93.80 194.85,92.05 195.20,89.60"/>
    </edge>
    <edge id=":intersection/0009_13" function="internal">
        <lane id=":intersection/0009_13_0" index="0" speed="13.89" length="20.80" shape="189.60,95.20 210.40,95.20"/>
        <lane id=":intersection/0009_13_1" index="1" speed="13.89" length="20.80" shape="189.60,98.40 210.40,98.40"/>
    </edge>
    <edge id=":intersection/0009_15" function="internal">
        <lane id=":intersection/0009_15_0" index="0" speed="9.26" length="19.35" shape="189.60,98.40 194.85,99.15 198.60,101.40 200.85,105.15 201.60,110.40"/>
    </edge>
    <edge id=":intersection/0010_0" function="internal">
        <lane id=":intersection/0010_0_0" index="0" speed="6.51" length="9.03" shape="295.20,110.40 294.85,107.95 293.80,106.20 292.05,105.15 289.60,104.80"/>
    </edge>
    <edge id=":intersection/0010_1" function="internal">
        <lane id=":intersection/0010_1_0" index="0" speed="13.89" length="20.80" shape="295.20,110.40 295.20,89.60"/>
        <lane id=":intersection/0010_1_1" index="1" speed="13.89" length="20.80" shape="298.40,110.40 298.40,89.60"/>
    </edge>
    <edge id=":intersection/0010_3" function="internal">
        <lane id=":intersection/0010_3_0" index="0" speed="9.26" length="19.35" shape="298.40,110.40 299.15,105.15 301.40,101.40 305.15,99.15 310.40,98.40"/>
    </edge>
    <edge id=":intersection/0010_4" function="internal">
        <lane id=":intersection/0010_4_0" index="0" speed="6.51" length="9.03" shape="310.40,104.80 307.95,105.15 306.20,106.20 305.15,107.95 304.80,110.40"/>
    </edge>
    <edge id=":intersection/0010_5" function="internal">
        <lane id=":intersection/0010_5_0" index="0" speed="13.89" length="20.80" shape="310.40,104.80 289.60,104.80"/>
        <lane id=":intersection/0010_5_1" index="1" speed="13.89" length="20.80" shape="310.40,101.60 289.60,101.60"/>
    </edge>
    <edge id=":intersection/0010_7" function="internal">
        <lane id=":intersection/0010_7_0" index="0" speed="9.26" length="19.35" shape="310.40,101.60 305.15,100.85 301.40,98.60 299.15,94.85 298.40,89.60"/>
    </edge>
    <edge id=":intersection/0010_8" function="internal">
        <lane id=":intersection/0010_8_0" index="0" speed="6.51" length="9.03" shape="304.80,89.60 305.15,92.05 306.20,93.80 307.95,94.85 310.40,95.20"/>
    </edge>
    <edge id=":intersection/0010_9" function="internal">
        <lane id=":intersection/0010_9_0" index="0" speed="13.89" length="20.80" shape="304.80,89.60 304.80,110.40"/>
        <lane id=":intersection/0010_9_1" index="1" speed="13.89" length="20.80" shape="301.60,89.60 301.60,110.40"/>
    </edge>
    <edge id=":intersection/0010_11" function="internal">
        <lane id=":intersection/0010_11_0" index="0" speed="9.26" length="19.35" shape="301.60,89.60 300.85,94.85 298.60,98.60 294.85,100.85 289.60,101.60"/>
    </edge>
    <edge id=":intersection/0010_12" function="internal">
        <lane id=":intersection/0010_12_0" index="0" speed="6.51" length="9.03" shape="289.60,95.20 292.05,94.85 293.80,93.80 294.85,92.05 295.20,89.60"/>
    </edge>
    <edge id=":intersection/0010_13" function="internal">
        <lane id=":intersection/0010_13_0" index="0" speed="13.89" length="20.80" shape="289.60,95.20 310.40,95.20"/>
        <lane id=":intersection/0010_13_1" index="1" speed="13.89" length="20.80" shape="289.60,98.40 310.40,98.40"/>
    </edge>
    <edge id=":intersection/0010_15" function="internal">
        <lane id=":intersection/0010_15_0" index="0" speed="9.26" length="19.35" shape="289.60,98.40 294.85,99.15 298.60,101.40 300.85,105.15 301.60,110.40"/>
    </edge>

    <edge id="A1B1" from="A1" to="intersection/0008" priority="-1">
        <lane id="A1B1_0" index="0" speed="13.89" length="89.60" shape="0.00,95.20 89.60,95.20"/>
        <lane id="A1B1_1" index="1" speed="13.89" length="89.60" shape="0.00,98.40 89.60,98.40"/>
    </edge>
    <edge id="A2B2" from="A2" to="intersection/0005" priority="-1">
        <lane id="A2B2_0" index="0" speed="13.89" length="89.60" shape="0.00,195.20 89.60,195.20"/>
        <lane id="A2B2_1" index="1" speed="13.89" length="89.60" shape="0.00,198.40 89.60,198.40"/>
    </edge>
    <edge id="A3B3" from="A3" to="intersection/0002" priority="-1">
        <lane id="A3B3_0" index="0" speed="13.89" length="89.60" shape="0.00,295.20 89.60,295.20"/>
        <lane id="A3B3_1" index="1" speed="13.89" length="89.60" shape="0.00,298.40 89.60,298.40"/>
    </edge>
    <edge id="B0B1" from="B0" to="intersection/0008" priority="-1">
        <lane id="B0B1_0" index="0" speed="13.89" length="89.60" shape="104.80,0.00 104.80,89.60"/>
        <lane id="B0B1_1" index="1" speed="13.89" length="89.60" shape="101.60,0.00 101.60,89.60"/>
    </edge>
    <edge id="B1A1" from="intersection/0008" to="A1" priority="-1">
        <lane id="B1A1_0" index="0" speed="13.89" length="89.60" shape="89.60,104.80 0.00,104.80"/>