<?xml version="1.0" encoding="UTF-8"?>

<!-- generated on Tue Dec  3 13:00:16 2019 by Eclipse SUMO duarouter Version 1.3.1
<configuration xmlns:xsi="http://www.w3.org/2001/XMLSchema-instance" xsi:noNamespaceSchemaLocation="http://sumo.dlr.de/xsd/duarouterConfiguration.xsd">

    <input>
        <net-file value="optimal.net.xml"/>
        <route-files value="optimal.pedestrian.trips.xml"/>
    </input>

    <output>
        <output-file value="optimal.pedestrian.rou.xml"/>
        <alternatives-output value="optimal.pedestrian.rou.alt.xml"/>
    </output>

    <time>
        <begin value="0"/>
        <end value="3600.0"/>
    </time>

    <report>
        <no-warnings value="true"/>
        <ignore-errors value="true"/>
        <no-step-log value="true"/>
    </report>

</configuration>
-->

<routes xmlns:xsi="http://www.w3.org/2001/XMLSchema-instance" xsi:noNamespaceSchemaLocation="http://sumo.dlr.de/xsd/routes_file.xsd">
    <vType id="ped_pedestrian" vClass="pedestrian"/>
    <person id="ped0" type="ped_pedestrian" depart="0.00">
        <walk edges="C4C3 C3C4 C3B3 B3B2 B2A2 A2B2"/>
    </person>
    <person id="ped1" type="ped_pedestrian" depart="4.68">
        <walk edges="B3B2 B2B3"/>
    </person>
    <person id="ped2" type="ped_pedestrian" depart="9.35">
        <walk edges="D1E1 D1C1"/>
    </person>
    <person id="ped3" type="ped_pedestrian" depart="14.03">
        <walk edges="D3D4 C3D3 C3B3 B3B2 B2B1 B1A1"/>
    </person>
    <person id="ped4" type="ped_pedestrian" depart="18.71">
        <walk edges="C1C2 C2B2 B2A2 A2B2"/>
    </person>
    <person id="ped5" type="ped_pedestrian" depart="23.38">
        <walk edges="B2B3 C2B2 C2C3"/>
    </person>
    <person id="ped6" type="ped_pedestrian" depart="28.06">
        <walk edges="A2B2 B2A2 B2B1"/>
    </person>
    <person id="ped7" type="ped_pedestrian" depart="32.74">
        <walk edges="D0D1 D1D0 D1C1 C1C2 C2C3 C3B3"/>
    </person>
    <person id="ped8" type="ped_pedestrian" depart="37.41">
        <walk edges="B2B3 B3C3 C3C4"/>
    </person>
    <person id="ped9" type="ped_pedestrian" depart="42.09">
        <walk edges="D2D3 C2D2 C2B2 B2B1 B1A1 A1B1"/>
    </person>
    <person id="ped10" type="ped_pedestrian" depart="46.77">
        <walk edges="D2D3 D1D2 D1D0"/>
    </person>
    <person id="ped11" type="ped_pedestrian" depart="51.44">
        <walk edges="B4B3 B3B4 B3B2 B2B1 B1C1"/>
    </person>
    <person id="ped12" type="ped_pedestrian" depart="56.12">
        <walk edges="E1D1 D1E1 D1C1 C1B1 B1B2 B3B2 B3B4 B4B3"/>
    </person>
    <person id="ped13" type="ped_pedestrian" depart="60.80">
        <walk edges="B1A1"/>
    </person>
    <person id="ped14" type="ped_pedestrian" depart="65.47">
        <walk edges="D3C3 C3C4"/>
    </person>
    <person id="ped15" type="ped_pedestrian" depart="70.15">
        <walk edges="D2D3 D1D2 D1E1"/>
    </person>
    <person id="ped16" type="ped_pedestrian" depart="74.83">
        <walk edges="C2D2 D2E2 E2D2"/>
    </person>
    <person id="ped17" type="ped_pedestrian" depart="79.50">
        <walk edges="C1B1 C2C1 C2C3 C3B3"/>
    </person>
    <person id="ped18" type="ped_pedestrian" depart="84.18">
        <walk edges="D2E2 D3D2 C3D3"/>
    </person>
    <person id="ped19" type="ped_pedestrian" depart="88.86">
        <walk edges="D3D2 C3D3 C3C2"/>
    </person>
    <person id="ped20" type="ped_pedestrian" depart="93.53">
        <walk edges="D1D0 C1D1 C1B1 B1B2 B2B3 B3A3 A3B3"/>
    </person>
    <person id="ped21" type="ped_pedestrian" depart="98.21">
        <walk edges="B2B3 B3B2"/>
    </person>
    <person id="ped22" type="ped_pedestrian" depart="102.89">
        <walk edges="B0B1 B1B0 B1B2 B2C2"/>
    </person>
    <person id="ped23" type="ped_pedestrian" depart="107.56">
        <walk edges="B1A1 B2B1 B3B2"/>
    </person>
    <person id="ped24" type="ped_pedestrian" depart="112.24">
        <walk edges="C4C3 C3C4 C3C2 C2C1 C1C0 C0C1"/>
    </person>
    <person id="ped25" type="ped_pedestrian" depart="116.92">
        <walk edges="C0C1 C1C0 C1B1 B1B2 B2B3"/>
    </person>
    <person id="ped26" type="ped_pedestrian" depart="121.59">
        <walk edges="B3A3 C3B3 C3D3 D3D4 D4D3"/>
    </person>
    <person id="ped27" type="ped_pedestrian" depart="126.27">
        <walk edges="D0D1 D1D0 D1D2 D2D3 C3D3"/>
    </person>
    <person id="ped28" type="ped_pedestrian" depart="130.94">
        <walk edges="B2A2 C2B2 C2D2 D1D2"/>
    </person>
    <person id="ped29" type="ped_pedestrian" depart="135.62">
        <walk edges="B1C1 C1B1"/>
    </person>
    <person id="ped30" type="ped_pedestrian" depart="140.30">
        <walk edges="E3D3 D3E3 D3C3 C3C4 C4C3"/>
    </person>
    <person id="ped31" type="ped_pedestrian" depart="144.97">
        <walk edges="C3B3 C2C3 C2C1 D1C1"/>
    </person>
    <person id="ped32" type="ped_pedestrian" depart="149.65">
        <walk edges="D3C3 D2D3 D2D1"/>
    </person>
    <person id="ped33" type="ped_pedestrian" depart="154.33">
        <walk edges="B2B3 B2A2 A2B2"/>
    </person>
    <person id="ped34" type="ped_pedestrian" depart="159.00">
        <walk edges="B3C3 B3A3"/>
    </person>
    <person id="ped35" type="ped_pedestrian" depart="163.68">
        <walk edges="B2B3 B1B2 B1C1 C1D1 D1E1 E1D1"/>
    </person>
    <person id="ped36" type="ped_pedestrian" depart="168.36">
        <walk edges="D3D4 C3D3 B3C3"/>
    </person>
    <person id="ped37" type="ped_pedestrian" depart="173.03">
        <walk edges="D0D1 D1D0 D1C1 C1B1"/>
    </person>
    <person id="ped38" type="ped_pedestrian" depart="177.71">
        <walk edges="D3E3 C3D3 C3C2 C2B2"/>
    </person>
    <person id="ped39" type="ped_pedestrian" depart="182.39">
        <walk edges="B3A3 B2B3 B2C2"/>
    </person>
    <person id="ped40" type="ped_pedestrian" depart="187.06">
        <walk edges="C3B3 B3A3"/>
    </person>
    <person id="ped41" type="ped_pedestrian" depart="191.74">
        <walk edges="C3C4 D3C3 D3E3"/>
    </person>
    <person id="ped42" type="ped_pedestrian" depart="196.42">
        <walk edges="C1C0 B1C1 B1B2 B2B3"/>
    </person>
    <person id="ped43" type="ped_pedestrian" depart="201.09">
        <walk edges="E3D3 D3E3 D3C3 C2C3"/>
    </person>
    <person id="ped44" type="ped_pedestrian" depart="205.77">
        <walk edges="B1A1 B2B1 B2B3 B3A3 A3B3"/>
    </person>
    <person id="ped45" type="ped_pedestrian" depart="210.45">
        <walk edges="B1B0 B2B1 B2B3 B3C3 C3C4 C4C3"/>
    </person>
    <person id="ped46" type="ped_pedestrian" depart="215.12">
        <walk edges="D2D3 C2D2 C1C2"/>
    </person>
    <person id="ped47" type="ped_pedestrian" depart="219.80">
        <walk edges="B0B1 B1B0 C1B1"/>
    </person>
    <person id="ped48" type="ped_pedestrian" depart="224.48">
        <walk edges="E3D3 D3E3 D3D2 C2D2"/>
    </person>
    <person id="ped49" type="ped_pedestrian" depart="229.15">
        <walk edges="E2D2 D2E2 D3D2"/>
    </person>
    <person id="ped50" type="ped_pedestrian" depart="233.83">
        <walk edges="A1B1 B1A1 B1C1 C1D1 D1D2"/>
    </person>
    <person id="ped51" type="ped_pedestrian" depart="238.51">
        <walk edges="D1C1 D2D1 C2D2"/>
    </person>
    <person id="ped52" type="ped_pedestrian" depart="243.18">
        <walk edges="B3A3 C3B3 C3C4 C4C3"/>
    </person>
    <person id="ped53" type="ped_pedestrian" depart="247.86">
        <walk edges="B1B0 C1B1 C1C2"/>
    </person>
    <person id="ped54" type="ped_pedestrian" depart="252.54">
        <walk edges="C1D1 D1E1 E1D1"/>
    </person>
    <person id="ped55" type="ped_pedestrian" depart="257.21">
        <walk edges="D3D4 C3D3 C3B3 B3A3"/>
    </person>
    <person id="ped56" type="ped_pedestrian" depart="261.89">
        <walk edges="C2C3 B2C2 B2A2"/>
    </person>
    <person id="ped57" type="ped_pedestrian" depart="266.57">
        <walk edges="D3E3 D3D2"/>
    </person>
    <person id="ped58" type="ped_pedestrian" depart="271.24">
        <walk edges="B3B4 C3B3 C3C4 C4C3"/>
    </person>
    <person id="ped59" type="ped_pedestrian" depart="275.92">
        <walk edges="C3D3 C2C3 C2C1 B1C1"/>
    </person>
    <person id="ped60" type="ped_pedestrian" depart="280.60">
        <walk edges="D2C2 C2D2"/>
    </person>
    <person id="ped61" type="ped_pedestrian" depart="285.27">
        <walk edges="D2D1 C2D2"/>
    </person>
    <person id="ped62" type="ped_pedestrian" depart="289.95">
        <walk edges="A1B1 B1A1 B1B2 B2B3 B3C3"/>
    </person>
    <person id="ped63" type="ped_pedestrian" depart="294.63">
        <walk edges="A1B1 B1A1 B1B2 B2B3 B3C3 D3C3 D3D4 D4D3"/>
    </person>
    <person id="ped64" type="ped_pedestrian" depart="299.30">
        <walk edges="D3D4 D2D3 D2E2"/>
    </person>
    <person id="ped65" type="ped_pedestrian" depart="303.98">
        <walk edges="B3B4 B3A3 A3B3"/>
    </person>
    <person id="ped66" type="ped_pedestrian" depart="308.66">
        <walk edges="D3D4 D2D3 D2D1 D1E1 E1D1"/>
    </person>
    <person id="ped67" type="ped_pedestrian" depart="313.33">
        <walk edges="B1A1 C1B1 C2C1"/>
    </person>
    <person id="ped68" type="ped_pedestrian" depart="318.01">
        <walk edges="B0B1 B1B0 B1B2 B2C2 D2C2"/>
    </person>
    <person id="ped69" type="ped_pedestrian" depart="322.69">
        <walk edges="D2C2 C2B2 B1B2"/>
    </person>
    <person id="ped70" type="ped_pedestrian" depart="327.36">
        <walk edges="C2B2 C3C2 C3B3"/>
    </person>
    <person id="ped71" type="ped_pedestrian" depart="332.04">
        <walk edges="B3A3 C3B3 C3D3 D3D2"/>
    </person>
    <person id="ped72" type="ped_pedestrian" depart="336.72">
        <walk edges="C1C2 C2B2 B2B3"/>
    </person>
    <person id="ped73" type="ped_pedestrian" depart="341.39">
        <walk edges="C2D2 D2D1 D1E1"/>
    </person>
    <person id="ped74" type="ped_pedestrian" depart="346.07">
        <walk edges="B2B1 B3B2 B3B4"/>
    </person>
    <person id="ped75" type="ped_pedestrian" depart="350.75">
        <walk edges="E3D3 D3E3 D3D2 D2D1 D1D0 D0D1"/>
    </person>
    <person id="ped76" type="ped_pedestrian" depart="355.42">
        <walk edges="C1D1 C2C1 C2C3"/>
    </person>
    <person id="ped77" type="ped_pedestrian" depart="360.10">
        <walk edges="B1B0 B2B1 B2B3"/>
    </person>
    <person id="ped78" type="ped_pedestrian" depart="364.78">
        <walk edges="B4B3 B3B4 B3C3 C3C4"/>
    </person>
    <person id="ped79" type="ped_pedestrian" depart="369.45">
        <walk edges="B2C2 B2B3"/>
    </person>
    <person id="ped80" type="ped_pedestrian" depart="374.13">
        <walk edges="B0B1 B1B0 B1B2 B2B3 B3C3 C3C4 C4C3"/>
    </person>
    <person id="ped81" type="ped_pedestrian" depart="378.81">
        <walk edges="B2B3 B3C3 C3D3 D3E3"/>
    </person>
    <person id="ped82" type="ped_pedestrian" depart="383.48">
        <walk edges="D3D2 D2C2 C2B2 B2B1 B1B0 B0B1"/>
    </person>
    <person id="ped83" type="ped_pedestrian" depart="388.16">
        <walk edges="B2C2 C2C1 D1C1"/>
    </person>
    <person id="ped84" type="ped_pedestrian" depart="392.83">
        <walk edges="B2B3 B1B2"/>
    </person>
    <person id="ped85" type="ped_pedestrian" depart="397.51">
        <walk edges="D4D3 D3D4 D3C3 C3C2"/>
    </person>
    <person id="ped86" type="ped_pedestrian" depart="402.19">
        <walk edges="C2B2 D2C2 D2D1"/>
    </person>
    <person id="ped87" type="ped_pedestrian" depart="406.86">
        <walk edges="D2D3 C2D2 C2B2 B2B1"/>
    </person>
    <person id="ped88" type="ped_pedestrian" depart="411.54">
        <walk edges="B1A1 C1B1 C1C2"/>
    </person>
    <person id="ped89" type="ped_pedestrian" depart="416.22">
        <walk edges="C1C2 C2B2"/>
    </person>
    <person id="ped90" type="ped_pedestrian" depart="420.89">
        <walk edges="D1D2 D1C1"/>
    </person>
    <person id="ped91" type="ped_pedestrian" depart="425.57">
        <walk edges="E3D3 D3E3 D3C3 C3B3 B3B2 B1B2 B1A1"/>
    </person>
    <person id="ped92" type="ped_pedestrian" depart="430.25">
        <walk edges="C1C0 B1C1 B1B2 B2B3 B3B4 B4B3"/>
    </person>
    <person id="ped93" type="ped_pedestrian" depart="434.92">
        <walk edges="D3D2 D2C2 B2C2"/>
    </person>
    <person id="ped94" type="ped_pedestrian" depart="439.60">
        <walk edges="B2B1 B1C1 C1D1"/>
    </person>
    <person id="ped95" type="ped_pedestrian" depart="444.28">
        <walk edges="C1C2 C2B2 B3B2"/>
    </person>
    <person id="ped96" type="ped_pedestrian" depart="448.95">
        <walk edges="B2C2 C2C3 C3D3 D3D4 D4D3"/>
    </person>
    <person id="ped97" type="ped_pedestrian" depart="453.63">
        <walk edges="C1D1 D1D2 D3D2"/>
    </person>
    <person id="ped98" type="ped_pedestrian" depart="458.31">
        <walk edges="C3B3 B3A3 A3B3"/>
    </person>
    <person id="ped99" type="ped_pedestrian" depart="462.98">
        <walk edges="E3D3 D3E3 D3C3"/>
    </person>
    <person id="ped100" type="ped_pedestrian" depart="467.66">
        <walk edges="E2D2 D2E2 D2D3 D3D4 D4D3"/>
    </person>
    <person id="ped101" type="ped_pedestrian" depart="472.34">
        <walk edges="D3C3 C3C2 C2C1 B1C1"/>
    </person>
    <person id="ped102" type="ped_pedestrian" depart="477.01">
        <walk edges="C2C1 B2C2 B2B3"/>
    </person>
    <person id="ped103" type="ped_pedestrian" depart="481.69">
        <walk edges="C1C0 B1C1 B1B2 B2B3 B3A3 A3B3"/>
    </person>
    <person id="ped104" type="ped_pedestrian" depart="486.37">
        <walk edges="C1B1 C2C1 C2C3 C3D3 D3E3 E3D3"/>
    </person>
    <person id="ped105" type="ped_pedestrian" depart="491.04">
        <walk edges="B3A3 B2B3 B2C2 C2D2 D2D1"/>
    </person>
    <person id="ped106" type="ped_pedestrian" depart="495.72">
        <walk edges="C1D1 C1C2"/>
    </person>
    <person id="ped107" type="ped_pedestrian" depart="500.40">
        <walk edges="E1D1 D1E1 D1D2 D2D3 D3E3 E3D3"/>
    </person>
    <person id="ped108" type="ped_pedestrian" depart="505.07">
        <walk edges="C3B3 C2C3 C2D2 D1D2"/>
    </person>
    <person id="ped109" type="ped_pedestrian" depart="509.75">
        <walk edges="B1C1 B2B1 B2B3 B3B4"/>
    </person>
    <person id="ped110" type="ped_pedestrian" depart="514.43">
        <walk edges="E2D2 D2E2 D2C2 C3C2"/>
    </person>
    <person id="ped111" type="ped_pedestrian" depart="519.10">
        <walk edges="C3B3 C2C3 C2C1 C1D1 D1E1"/>
    </person>
    <person id="ped112" type="ped_pedestrian" depart="523.78">
        <walk edges="A3B3 B3A3 B3C3 C3C4"/>
    </person>
    <person id="ped113" type="ped_pedestrian" depart="528.46">
        <walk edges="C2C3 D3C3"/>
    </person>
    <person id="ped114" type="ped_pedestrian" depart="533.13">
        <walk edges="B1C1 C1C2 C2D2 D2E2 E2D2"/>
    </person>
    <person id="ped115" type="ped_pedestrian" depart="537.81">
        <walk edges="B0B1 B1B0 B1B2 B2A2"/>
    </person>
    <person id="ped116" type="ped_pedestrian" depart="542.49">
        <walk edges="C3C4 C2C3 C2C1 D1C1"/>
    </person>
    <person id="ped117" type="ped_pedestrian" depart="547.16">
        <walk edges="B2C2 B1B2 B1B0"/>
    </person>
    <person id="ped118" type="ped_pedestrian" depart="551.84">
        <walk edges="D3D4 C3D3 C3C2 B2C2"/>
    </person>
    <person id="ped119" type="ped_pedestrian" depart="556.52">
        <walk edges="C3C4 C3D3"/>
    </person>
    <person id="ped120" type="ped_pedestrian" depart="561.19">
        <walk edges="C1C2 C2C3 C3C4"/>
    </person>
    <person id="ped121" type="ped_pedestrian" depart="565.87">
        <walk edges="C2D2 D2D3 D3D4 D4D3"/>
    </person>
    <person id="ped122" type="ped_pedestrian" depart="570.55">
        <walk edges="B2B1 C2B2 C2D2 D1D2"/>
    </person>
    <person id="ped123" type="ped_pedestrian" depart="575.22">
        <walk edges="B2C2 B1B2 C1B1"/>
    </person>
    <person id="ped124" type="ped_pedestrian" depart="579.90">
        <walk edges="D1C1 C1B1 B1B2 B2B3 B3B4"/>
    </person>
    <person id="ped125" type="ped_pedestrian" depart="584.58">
        <walk edges="B3C3 C3C2 D2C2"/>
    </person>
    <person id="ped126" type="ped_pedestrian" depart="589.25">
        <walk edges="B0B1 B1B0 B1C1 C1D1"/>
    </person>
    <person id="ped127" type="ped_pedestrian" depart="593.93">
        <walk edges="E3D3"/>
    </person>
    <person id="ped128" type="ped_pedestrian" depart="598.61">
        <walk edges="B0B1 B1B0 B1B2 B2B3"/>
    </person>
    <person id="ped129" type="ped_pedestrian" depart="603.28">
        <walk edges="B3A3 C3B3 C3D3 D3D4 D4D3"/>
    </person>
    <person id="ped130" type="ped_pedestrian" depart="607.96">
        <walk edges="D3D4"/>
    </person>
    <person id="ped131" type="ped_pedestrian" depart="612.64">
        <walk edges="C0C1 C1C0 B1C1"/>
    </person>
    <person id="ped132" type="ped_pedestrian" depart="617.31">
        <walk edges="D3C3 D2D3 D2D1 D1D0"/>
    </person>
    <person id="ped133" type="ped_pedestrian" depart="621.99">
        <walk edges="C3D3 D3E3 E3D3"/>
    </person>
    <person id="ped134" type="ped_pedestrian" depart="626.67">
        <walk edges="D0D1 D1D0 D1C1 C1B1 B1A1 A1B1"/>
    </person>
    <person id="ped135" type="ped_pedestrian" depart="631.34">
        <walk edges="D2E2 C2D2 C2B2 B2B3 B3B4"/>
    </person>
    <person id="ped136" type="ped_pedestrian" depart="636.02">
        <walk edges="D0D1 D1D0 D1E1 E1D1"/>
    </person>
    <person id="ped137" type="ped_pedestrian" depart="640.70">
        <walk edges="B1B2 B1B0"/>
    </person>
    <person id="ped138" type="ped_pedestrian" depart="645.37">
        <walk edges="B1B0 B2B1 B2B3 C3B3"/>
    </person>
    <person id="ped139" type="ped_pedestrian" depart="650.05">
        <walk edges="B3B2 C3B3 C3D3"/>
    </person>
    <person id="ped140" type="ped_pedestrian" depart="654.72">
        <walk edges="D1D2 C1D1 C1B1 B2B1"/>
    </person>
    <person id="ped141" type="ped_pedestrian" depart="659.40">
        <walk edges="C4C3 C3C4 C3B3 B3A3"/>
    </person>
    <person id="ped142" type="ped_pedestrian" depart="664.08">
        <walk edges="C2C1 C3C2 C3D3 D3E3"/>
    </person>
    <person id="ped143" type="ped_pedestrian" depart="668.75">
        <walk edges="D3C3 C3B3 B3B2 B2B1 B1A1"/>
    </person>
    <person id="ped144" type="ped_pedestrian" depart="673.43">
        <walk edges="C1C2 C2B2 B3B2"/>
    </person>
    <person id="ped145" type="ped_pedestrian" depart="678.11">
        <walk edges="A1B1 B1A1 B1C1 C1D1 D2D1"/>
    </person>
    <person id="ped146" type="ped_pedestrian" depart="682.78">
        <walk edges="C4C3 C3C4 C3B3 B3A3"/>
    </person>
    <person id="ped147" type="ped_pedestrian" depart="687.46">
        <walk edges="D1E1 C1D1 C1C2 C2C3 C3B3"/>
    </person>
    <person id="ped148" type="ped_pedestrian" depart="692.14">
        <walk edges="C1C2 B1C1 B1A1 A1B1"/>
    </person>
    <person id="ped149" type="ped_pedestrian" depart="696.81">
        <walk edges="B0B1 B1B0 B1B2 B2B3 B3C3 D3C3 D3D4"/>
    </person>
    <person id="ped150" type="ped_pedestrian" depart="701.49">
        <walk edges="D3E3 C3D3 C3B3"/>
    </person>
    <person id="ped151" type="ped_pedestrian" depart="706.17">
        <walk edges="D3C3 C3C2"/>
    </person>
    <person id="ped152" type="ped_pedestrian" depart="710.84">
        <walk edges="B1C1 B1B2"/>
    </person>
    <person id="ped153" type="ped_pedestrian" depart="715.52">
        <walk edges="B3B4 C3B3 C3D3 D3E3"/>
    </person>
    <person id="ped154" type="ped_pedestrian" depart="720.20">
        <walk edges="D2D3 D3D2"/>
    </person>
    <person id="ped155" type="ped_pedestrian" depart="724.87">
        <walk edges="D3E3 C3D3 C3B3 B2B3"/>
    </person>
    <person id="ped156" type="ped_pedestrian" depart="729.55">
        <walk edges="B2C2 B1B2 B1A1"/>
    </person>
    <person id="ped157" type="ped_pedestrian" depart="734.23">
        <walk edges="D2D1 D3D2 D3D4"/>
    </person>
    <person id="ped158" type="ped_pedestrian" depart="738.90">
        <walk edges="C1C0 C2C1 C2C3 C3D3"/>
    </person>
    <person id="ped159" type="ped_pedestrian" depart="743.58">
        <walk edges="B1C1 C1C2 C2C3 C3D3 D3D4 D4D3"/>
    </person>
    <person id="ped160" type="ped_pedestrian" depart="748.26">
        <walk edges="D3D2 D2E2 E2D2"/>
    </person>
    <person id="ped161" type="ped_pedestrian" depart="752.93">
        <walk edges="D2D3 D3D4"/>
    </person>
    <person id="ped162" type="ped_pedestrian" depart="757.61">
        <walk edges="A2B2 B2A2 B2B1 B1C1 C1D1 D1E1"/>
    </person>
    <person id="ped163" type="ped_pedestrian" depart="762.29">
        <walk edges="B3C3 C3D3 D3D4 D4D3"/>
    </person>
    <person id="ped164" type="ped_pedestrian" depart="766.96">
        <walk edges="D2D3 D3D2"/>
    </person>
    <person id="ped165" type="ped_pedestrian" depart="771.64">
        <walk edges="D2D3 D3C3 C3B3 B3A3"/>
    </person>
    <person id="ped166" type="ped_pedestrian" depart="776.32">
        <walk edges="D2D1 D1C1 C1B1 B1B0"/>
    </person>
    <person id="ped167" type="ped_pedestrian" depart="780.99">
        <walk edges="D3D2"/>
    </person>
    <person id="ped168" type="ped_pedestrian" depart="785.67">
        <walk edges="B2B3 C2B2 C2D2 D2E2"/>
    </person>
    <person id="ped169" type="ped_pedestrian" depart="790.35">
        <walk edges="C2B2 B2B3 B3B4"/>
    </person>
    <person id="ped170" type="ped_pedestrian" depart="795.02">
        <walk edges="D2D3 C2D2 C2B2 B2B3"/>
    </person>
    <person id="ped171" type="ped_pedestrian" depart="799.70">
        <walk edges="A2B2 B2A2 B2B1"/>
    </person>
    <person id="ped172" type="ped_pedestrian" depart="804.38">
        <walk edges="B3C3 C3D3 D3D2"/>
    </person>
    <person id="ped173" type="ped_pedestrian" depart="809.05">
        <walk edges="E2D2 D2E2 D2C2 C2B2 B3B2"/>
    </person>
    <person id="ped174" type="ped_pedestrian" depart="813.73">
        <walk edges="C4C3 C3C4 C3C2 C2C1 C1C0"/>
    </person>
    <person id="ped175" type="ped_pedestrian" depart="818.41">
        <walk edges="E3D3 D3E3 D3D2 C2D2"/>
    </person>
    <person id="ped176" type="ped_pedestrian" depart="823.08">
        <walk edges="E1D1 D1E1 D1C1 C1B1 B1B0"/>
    </person>
    <person id="ped177" type="ped_pedestrian" depart="827.76">
        <walk edges="E2D2 D2E2 D2C2 C2B2 B2A2"/>
    </person>
    <person id="ped178" type="ped_pedestrian" depart="832.44">
        <walk edges="E2D2 D2E2 D2C2 C2B2 B2B3 B3A3"/>
    </person>
    <person id="ped179" type="ped_pedestrian" depart="837.11">
        <walk edges="B1B0 C1B1 C1C2"/>
    </person>
    <person id="ped180" type="ped_pedestrian" depart="841.79">
        <walk edges="D1D2 D2C2 C2C3 B3C3"/>
    </person>
    <person id="ped181" type="ped_pedestrian" depart="846.47">
        <walk edges="C3D3 C2C3"/>
    </person>
    <person id="ped182" type="ped_pedestrian" depart="851.14">
        <walk edges="C1B1 C2C1 C3C2"/>
    </person>
    <person id="ped183" type="ped_pedestrian" depart="855.82">
        <walk edges="B3A3 B2B3 B2C2 C2D2 D1D2"/>
    </person>
    <person id="ped184" type="ped_pedestrian" depart="860.50">
        <walk edges="A1B1 B1A1 B1B2 B2B3 B3C3 D3C3 D3D4 D4D3"/>
    </person>
    <person id="ped185" type="ped_pedestrian" depart="865.17">
        <walk edges="C2D2 D1D2"/>
    </person>
    <person id="ped186" type="ped_pedestrian" depart="869.85">
        <walk edges="D1E1 D1C1"/>
    </person>
    <person id="ped187" type="ped_pedestrian" depart="874.53">
        <walk edges="C0C1 C1C0 C1B1 B1B0 B0B1"/>
    </person>
    <person id="ped188" type="ped_pedestrian" depart="879.20">
        <walk edges="D0D1 D1D0 D1C1 C1C2 C2C3 B3C3"/>
    </person>
    <person id="ped189" type="ped_pedestrian" depart="883.88">
        <walk edges="B3C3 D3C3"/>
    </person>
    <person id="ped190" type="ped_pedestrian" depart="888.56">
        <walk edges="D1D2 D2C2 C2B2 B2B3 B3B4"/>
    </person>
    <person id="ped191" type="ped_pedestrian" depart="893.23">
        <walk edges="B3B4 B2B3 B2B1 B1C1 C1C0"/>
    </person>
    <person id="ped192" type="ped_pedestrian" depart="897.91">
        <walk edges="C1C0 B1C1 B1B2 B2B3 B3B4"/>
    </person>
    <person id="ped193" type="ped_pedestrian" depart="902.59">
        <walk edges="B1B2 C1B1 C1C2"/>
    </person>
    <person id="ped194" type="ped_pedestrian" depart="907.26">
        <walk edges="E1D1 D1E1 D1C1"/>
    </person>
    <person id="ped195" type="ped_pedestrian" depart="911.94">
        <walk edges="D3E3 C3D3"/>
    </person>
    <person id="ped196" type="ped_pedestrian" depart="916.61">
        <walk edges="B3B4 C3B3"/>
    </person>
    <person id="ped197" type="ped_pedestrian" depart="921.29">
        <walk edges="A1B1 B1A1 B1B2 B3B2"/>
    </person>
    <person id="ped198" type="ped_pedestrian" depart="925.97">
        <walk edges="C1C2 C3C2"/>
    </person>
    <person id="ped199" type="ped_pedestrian" depart="930.64">
        <walk edges="D0D1 D1D0 D1C1 C1C2 C2B2"/>
    </person>
    <person id="ped200" type="ped_pedestrian" depart="935.32">
        <walk edges="C1D1 B1C1 B1B2 B2B3"/>
    </person>
    <person id="ped201" type="ped_pedestrian" depart="940.00">
        <walk edges="C2B2 C3C2 C3D3 D3E3"/>
    </person>
    <person id="ped202" type="ped_pedestrian" depart="944.67">
        <walk edges="D2D3 C2D2 C2B2 B2A2"/>
    </person>
    <person id="ped203" type="ped_pedestrian" depart="949.35">
        <walk edges="B1A1 B2B1 B2C2 C2C3"/>
    </person>
    <person id="ped204" type="ped_pedestrian" depart="954.03">
        <walk edges="C4C3 C3C4 C3B3 B3B4 B4B3"/>
    </person>
    <person id="ped205" type="ped_pedestrian" depart="958.70">
        <walk edges="D2E2 D2C2"/>
    </person>
    <person id="ped206" type="ped_pedestrian" depart="963.38">
        <walk edges="D1C1 C1B1 B1B2 B2B3"/>
    </person>
    <person id="ped207" type="ped_pedestrian" depart="968.06">
        <walk edges="B2B1 B2A2 A2B2"/>
    </person>
    <person id="ped208" type="ped_pedestrian" depart="972.73">
        <walk edges="B2C2 C2B2"/>
    </person>
    <person id="ped209" type="ped_pedestrian" depart="977.41">
        <walk edges="D3C3 C3B3 B3B2 B2B1 B1B0 B0B1"/>
    </person>
    <person id="ped210" type="ped_pedestrian" depart="982.09">
        <walk edges="C1C0 C2C1 C2C3 C3C4 C4C3"/>
    </person>
    <person id="ped211" type="ped_pedestrian" depart="986.76">
        <walk edges="B2B1 B1C1 C1D1 D1D0"/>
    </person>
    <person id="ped212" type="ped_pedestrian" depart="991.44">
        <walk edges="C2C1 B2C2"/>
    </person>
    <person id="ped213" type="ped_pedestrian" depart="996.12">
        <walk edges="D0D1 D1D0 D1C1 C1B1 B1A1 A1B1"/>
    </person>
    <person id="ped214" type="ped_pedestrian" depart="1000.79">
        <walk edges="D2C2"/>
    </person>
    <person id="ped215" type="ped_pedestrian" depart="1005.47">
        <walk edges="B1B0 C1B1 C1C2"/>
    </person>
    <person id="ped216" type="ped_pedestrian" depart="1010.15">
        <walk edges="B2A2 B1B2 B1C1 C1D1 D1E1 E1D1"/>
    </person>
    <person id="ped217" type="ped_pedestrian" depart="1014.82">
        <walk edges="C2C3 C3B3 B3A3 A3B3"/>
    </person>
    <person id="ped218" type="ped_pedestrian" depart="1019.50">
        <walk edges="B2C2 C2C3 D3C3"/>
    </person>
    <person id="ped219" type="ped_pedestrian" depart="1024.18">
        <walk edges="C1D1 D1D2 D2D3"/>
    </person>
    <person id="ped220" type="ped_pedestrian" depart="1028.85">
        <walk edges="D1C1 D2D1 D2D3 D3E3 E3D3"/>
    </person>
    <person id="ped221" type="ped_pedestrian" depart="1033.53">
        <walk edges="C3C4 C2C3 C2C1 C1D1 D1E1 E1D1"/>
    </person>
    <person id="ped222" type="ped_pedestrian" depart="1038.21">
        <walk edges="D3D4 C3D3"/>
    </person>
    <person id="ped223" type="ped_pedestrian" depart="1042.88">
        <walk edges="D1D2 D2C2 C2C3"/>
    </person>
    <person id="ped224" type="ped_pedestrian" depart="1047.56">
        <walk edges="D2E2 C2D2 C2C3 C3B3"/>
    </person>
    <person id="ped225" type="ped_pedestrian" depart="1052.24">
        <walk edges="D3E3 D2D3 D2D1 D1E1"/>
    </person>
    <person id="ped226" type="ped_pedestrian" depart="1056.91">
        <walk edges="C2B2 B2B3 B3A3"/>
    </person>
    <person id="ped227" type="ped_pedestrian" depart="1061.59">
        <walk edges="B2C2 C2C3 C3C4 C4C3"/>
    </person>
    <person id="ped228" type="ped_pedestrian" depart="1066.27">
        <walk edges="D2C2 C2D2"/>
    </person>
    <person id="ped229" type="ped_pedestrian" depart="1070.94">
        <walk edges="C4C3 C3C4 C3B3 B3B2"/>
    </person>
    <person id="ped230" type="ped_pedestrian" depart="1075.62">
        <walk edges="B0B1 B1B0 B1B2 B3B2"/>
    </person>
    <person id="ped231" type="ped_pedestrian" depart="1080.30">
        <walk edges="B3B2 B3C3"/>
    </person>
    <person id="ped232" type="ped_pedestrian" depart="1084.97">
        <walk edges="C2D2 B2C2 B1B2"/>
    </person>
    <person id="ped233" type="ped_pedestrian" depart="1089.65">
        <walk edges="B2C2 C2C1 C1D1 D1D0"/>
    </person>
    <person id="ped234" type="ped_pedestrian" depart="1094.33">
        <walk edges="D1D0 C1D1 C1B1 B1B0 B0B1"/>
    </person>
    <person id="ped235" type="ped_pedestrian" depart="1099.00">
        <walk edges="C1C0 C2C1 C2C3 C3B3"/>
    </person>
    <person id="ped236" type="ped_pedestrian" depart="1103.68">
        <walk edges="C1C0 B1C1 B2B1"/>
    </person>
    <person id="ped237" type="ped_pedestrian" depart="1108.36">
        <walk edges="C1C2 C2C3 C3D3 D3E3"/>
    </person>
    <person id="ped238" type="ped_pedestrian" depart="1113.03">
        <walk edges="C3C4 C2C3 C2C1 C1D1 D1D0"/>
    </person>
    <person id="ped239" type="ped_pedestrian" depart="1117.71">
        <walk edges="D3D2 D2C2"/>
    </person>
    <person id="ped240" type="ped_pedestrian" depart="1122.39">
        <walk edges="C1B1 B1A1 A1B1"/>
    </person>
    <person id="ped241" type="ped_pedestrian" depart="1127.06">
        <walk edges="B4B3 B3B4 B3B2 B2C2 D2C2"/>
    </person>
    <person id="ped242" type="ped_pedestrian" depart="1131.74">