<?xml version="1.0" encoding="UTF-8"?>

<!-- generated on mar 03 dic 2019 12:06:13 -03 by Eclipse SUMO netedit Version 1.3.1
<configuration xmlns:xsi="http://www.w3.org/2001/XMLSchema-instance" xsi:noNamespaceSchemaLocation="http://sumo.dlr.de/xsd/netconvertConfiguration.xsd">

    <output>
        <output-file value="/home/jose/PycharmProjects/SUMO_SanDiego_Pilot1/MicroDescongest/optimal.net.xml"/>
    </output>

    <processing>
        <offset.disable-normalization value="true"/>
    </processing>

    <junctions>
        <no-turnarounds value="true"/>
    </junctions>

</configuration>
-->

<additional xmlns:xsi="http://www.w3.org/2001/XMLSchema-instance" xsi:noNamespaceSchemaLocation="http://sumo.dlr.de/xsd/additional_file.xsd">
    <tlLogic id="intersection/0002/tls" type="static" programID="0" offset="0">
        <phase duration="20" state="GGGrrrrrGGGrrrrr"/>
        <phase duration="3" state="yyyrrrrryyyrrrrr"/>
        <phase duration="2" state="rrrrrrrrrrrrrrrr"/>
        <phase duration="10" state="rrrGrrrrrrrGrrrr"/>
        <phase duration="3" state="rrryrrrrrrryrrrr"/>
        <phase duration="2" state="rrrrrrrrrrrrrrrr"/>
        <phase duration="20" state="rrrrGGGrrrrrGGGr"/>
        <phase duration="3" state="rrrryyyrrrrryyyr"/>
        <phase duration="2" state="rrrrrrrrrrrrrrrr"/>
        <phase duration="10" state="rrrrrrrGrrrrrrrG"/>
        <phase duration="3" state="rrrrrrryrrrrrrry"/>
        <phase duration="2" state="rrrrrrrrrrrrrrrr"/>
    </tlLogic>

    <tlLogic id="intersection/0003/tls" type="static" programID="0" offset="0">
        <phase duration="20" state="GGGrrrrrGGGrrrrr"/>
        <phase duration="3" state="yyyrrrrryyyrrrrr"/>
        <phase duration="2" state="rrrrrrrrrrrrrrrr"/>
        <phase duration="10" state="rrrGrrrrrrrGrrrr"/>
        <phase duration="3" state="rrryrrrrrrryrrrr"/>
        <phase duration="2" state="rrrrrrrrrrrrrrrr"/>
        <phase duration="20" state="rrrrGGGrrrrrGGGr"/>
        <phase duration="3" state="rrrryyyrrrrryyyr"/>
        <phase duration="2" state="rrrrrrrrrrrrrrrr"/>
        <phase duration="10" state="rrrrrrrGrrrrrrrG"/>
        <phase duration="3" state="rrrrrrryrrrrrrry"/>
        <phase duration="2" state="rrrrrrrrrrrrrrrr"/>
    </tlLogic>

    <tlLogic id="intersection/0004/tls" type="static" programID="0" offset="0">
        <phase duration="20" state="GGGrrrrrGGGrrrrr"/>
        <phase duration="3" state="yyyrrrrryyyrrrrr"/>
        <phase duration="2" state="rrrrrrrrrrrrrrrr"/>
        <phase duration="10" state="rrrGrrrrrrrGrrrr"/>
        <phase duration="3" state="rrryrrrrrrryrrrr"/>
        <phase duration="2" state="rrrrrrrrrrrrrrrr"/>
        <phase duration="20" state="rrrrGGGrrrrrGGGr"/>
        <phase duration="3" state="rrrryyyrrrrryyyr"/>
        <phase duration="2" state="rrrrrrrrrrrrrrrr"/>
        <phase duration="10" state="rrrrrrrGrrrrrrrG"/>
        <phase duration="3" state="rrrrrrryrrrrrrry"/>
        <phase duration="2" state="rrrrrrrrrrrrrrrr"/>
    </tlLogic>

    <tlLogic id="intersection/0005/tls" type="static" programID="0" offset="0">
        <phase duration="20" state="GGGrrrrrGGGrrrrr"/>
        <phase duration="3" state="yyyrrrrryyyrrrrr"/>
        <phase duration="2" state="rrrrrrrrrrrrrrrr"/>
        <phase duration="10" state="rrrGrrrrrrrGrrrr"/>
        <phase duration="3" state="rrryrrrrrrryrrrr"/>
        <phase duration="2" state="rrrrrrrrrrrrrrrr"/>
        <phase duration="20" state="rrrrGGGrrrrrGGGr"/>
        <phase duration="3" state="rrrryyyrrrrryyyr"/>
        <phase duration="2" state="rrrrrrrrrrrrrrrr"/>
        <phase duration="10" state="rrrrrrrGrrrrrrrG"/>
        <phase duration="3" state="rrrrrrryrrrrrrry"/>
        <phase duration="2" state="rrrrrrrrrrrrrrrr"/>
    </tlLogic>

    <tlLogic id="intersection/0006/tls" type="static" programID="0" offset="0">
        <phase duration="20" state="GGGrrrrrGGGrrrrr"/>
        <phase duration="3" state="yyyrrrrryyyrrrrr"/>
        <phase duration="2" state="rrrrrrrrrrrrrrrr"/>
        <phase duration="10" state="rrrGrrrrrrrGrrrr"/>
        <phase duration="3" state="rrryrrrrrrryrrrr"/>
        <phase duration="2" state="rrrrrrrrrrrrrrrr"/>
        <phase duration="20" state="rrrrGGGrrrrrGGGr"/>
        <phase duration="3" state="rrrryyyrrrrryyyr"/>
        <phase duration="2" state="rrrrrrrrrrrrrrrr"/>
        <phase duration="10" state="rrrrrrrGrrrrrrrG"/>
        <phase duration="3" state="rrrrrrryrrrrrrry"/>
        <phase duration="2" state="rrrrrrrrrrrrrrrr"/>
    </tlLogic>

    <tlLogic id="intersection/0007/tls" type="static" programID="0" offset="0">
        <phase duration="20" state="GGGrrrrrGGGrrrrr"/>
        <phase duration="3" state="yyyrrrrryyyrrrrr"/>
        <phase duration="2" state="rrrrrrrrrrrrrrrr"/>
        <phase duration="10" state="rrrGrrrrrrrGrrrr"/>
        <phase duration="3" state="rrryrrrrrrryrrrr"/>
        <phase duration="2" state="rrrrrrrrrrrrrrrr"/>
        <phase duration="20" state="rrrrGGGrrrrrGGGr"/>
        <phase duration="3" state="rrrryyyrrrrryyyr"/>
        <phase duration="2" state="rrrrrrrrrrrrrrrr"/>
        <phase duration="10" state="rrrrrrrGrrrrrrrG"/>
        <phase duration="3" state="rrrrrrryrrrrrrry"/>
        <phase duration="2" state="rrrrrrrrrrrrrrrr"/>
    </tlLogic>

    <tlLogic id="intersection/0008/tls" type="static" programID="0" offset="0">
        <phase duration="20" state="GGGrrrrrGGGrrrrr"/>
        <phase duration="3" state="yyyrrrrryyyrrrrr"/>
        <phase duration="2" state="rrrrrrrrrrrrrrrr"/>
        <phase duration="10" state="rrrGrrrrrrrGrrrr"/>
        <phase duration="3" state="rrryrrrrrrryrrrr"/>
        <phase duration="2" state="rrrrrrrrrrrrrrrr"/>
        <phase duration="20" state="rrrrGGGrrrrrGGGr"/>
        <phase duration="3" state="rrrryyyrrrrryyyr"/>
        <phase duration="2" state="rrrrrrrrrrrrrrrr"/>
        <phase duration="10" state="rrrrrrrGrrrrrrrG"/>
        <phase duration="3" state="rrrrrrryrrrrrrry"/>
        <phase duration="2" state="rrrrrrrrrrrrrrrr"/>
    </tlLogic>

    <tlLogic id="intersection/0009/tls" type="static" programID="0" offset="0">
        <phase duration="20" state="GGGrrrrrGGGrrrrr"/>
        <phase duration="3" state="yyyrrrrryyyrrrrr"/>
        <phase duration="2" state="rrrrrrrrrrrrrrrr"/>
        <phase duration="10" state="rrrGrrrrrrrGrrrr"/>
        <phase duration="3" state="rrryrrrrrrryrrrr"/>
        <phase duration="2" state="rrrrrrrrrrrrrrrr"/>
        <phase duration="20" state="rrrrGGGrrrrrGGGr"/>
        <phase duration="3" state="rrrryyyrrrrryyyr"/>
        <phase duration="2" state="rrrrrrrrrrrrrrrr"/>
        <phase duration="10" state="rrrrrrrGrrrrrrrG"/>
        <phase duration="3" state="rrrrrrryrrrrrrry"/>
        <phase duration="2" state="rrrrrrrrrrrrrrrr"/>
    </tlLogic>

    <tlLogic id="intersection/0010/tls" type="static" programID="0" offset="0">
        <phase duration="20" state="GGGrrrrrGGGrrrrr"/>
        <phase duration="3" state="yyyrrrrryyyrrrrr"/>
        <phase duration="2" state="rrrrrrrrrrrrrrrr"/>
        <phase duration="10" state="rrrGrrrrrrrGrrrr"/>
        <phase duration="3" state="rrryrrrrrrryrrrr"/>
        <phase duration="2" state="rrrrrrrrrrrrrrrr"/>
        <phase duration="20" state="rrrrGGGrrrrrGGGr"/>
        <phase duration="3" state="rrrryyyrrrrryyyr"/>
        <phase duration="2" state="rrrrrrrrrrrrrrrr"/>
        <phase duration="10" state="rrrrrrrGrrrrrrrG"/>
        <phase duration="3" state="rrrrrrryrrrrrrry"/>
        <phase duration="2" state="rrrrrrrrrrrrrrrr"/>
    </tlLogic>
</additional>
