<?xml version="1.0" encoding="UTF-8"?>

<!-- generated on Thu Jul 11 16:13:02 2019 by Eclipse SUMO Version 1.2.0
-->

<configuration xmlns:xsi="http://www.w3.org/2001/XMLSchema-instance" xsi:noNamespaceSchemaLocation="http://sumo.dlr.de/xsd/sumoConfiguration.xsd">

    <input>
        <net-file value="optmial.net.xml"/>
        <route-files value="optmial.passenger.trips.xml,optmial.truck.trips.xml,optmial.bus.trips.xml,optmial.motorcycle.trips.xml,optmial.bicycle.trips.xml"/>
        <additional-files value="e2.add.xml"/>
    </input>

    <processing>
        <ignore-route-errors value="true"/>
	<step-method.ballistic value="true"/>
    </processing>

    <routing>
        <device.rerouting.adaptation-steps value="180"/>
    </routing>

    <report>
        <verbose value="true"/>
        <duration-log.statistics value="true"/>
        <no-step-log value="true"/>
    </report>

    <gui_only>
        <gui-settings-file value="optmial.view.xml"/>
    </gui_only>

</configuration>
