<?xml version="1.0" encoding="UTF-8"?>

<!-- generated on Wed Aug  7 14:01:31 2019 by Eclipse SUMO duarouter Version 1.2.0
<configuration xmlns:xsi="http://www.w3.org/2001/XMLSchema-instance" xsi:noNamespaceSchemaLocation="http://sumo.dlr.de/xsd/duarouterConfiguration.xsd">

    <input>
        <net-file value="osm.net.xml"/>
        <route-files value="osm.pedestrian.trips.xml"/>
    </input>

    <output>
        <output-file value="osm.pedestrian.rou.xml"/>
        <alternatives-output value="osm.pedestrian.rou.alt.xml"/>
    </output>

    <time>
        <begin value="0"/>
        <end value="3600.0"/>
    </time>

    <report>
        <no-warnings value="true"/>
        <ignore-errors value="true"/>
        <no-step-log value="true"/>
    </report>

</configuration>
-->

<routes xmlns:xsi="http://www.w3.org/2001/XMLSchema-instance" xsi:noNamespaceSchemaLocation="http://sumo.dlr.de/xsd/routes_file.xsd">
    <vType id="ped_pedestrian" vClass="pedestrian"/>
    <person id="ped0" type="ped_pedestrian" depart="0.00">
        <walk edges="578934713#1 -578934712 6024091#3 578934716 -578934718#1 -578934718#2 -578934717#0 436291064#0 436291062 436291031 641705064#1 641705064#0 641705063#3 641705063#2 641705063#1 641705063#0 436291020#0 -184711452"/>
    </person>
    <person id="ped1" type="ped_pedestrian" depart="3.12">
        <walk edges="-593766965 5962129#5 5962129#4 36054466#9 36054466#8 36054466#7 36054466#6 36054466#5 36054466#4 36054466#3 -578942365 -578942367#2"/>
    </person>
    <person id="ped2" type="ped_pedestrian" depart="6.24">
        <walk edges="578942356 593766964 593766965 5962129#5 5962129#4 36054466#9 36054466#8 36054466#7 36054466#6 36054466#5 641705063#2 641705063#3 641705064#0 578934719"/>
    </person>
    <person id="ped3" type="ped_pedestrian" depart="9.35">
        <walk edges="5962129#4 36054466#9 36054466#8 36054466#7 36054466#6 36054466#5 36054466#4 36054466#3 36054466#2 36054466#1 36054466#0 634644489 234953562 642337373 642337374#1 -578934692"/>
    </person>
    <person id="ped4" type="ped_pedestrian" depart="12.47">
        <walk edges="36054466#8 36054466#7 36054466#6 36054466#5 36054466#4 36054466#3 36054466#2 36054466#1 36054466#0 89927838#3 -184711458"/>
    </person>
    <person id="ped5" type="ped_pedestrian" depart="15.59">
        <walk edges="-578942367#1 -578942367#2 -578942365 36054466#3 36054466#4 641705063#1 641705063#0 436291020#0"/>
    </person>
    <person id="ped6" type="ped_pedestrian" depart="18.71">
        <walk edges="-184711458 642751754#0 436291019 436291020#2 436291020#1 436291020#0 436291018 593766961 593766963 593766964 -578942357"/>
    </person>
    <person id="ped7" type="ped_pedestrian" depart="21.82">
        <walk edges="578934716 -578934718#1 -578934718#2 -578934717#0 436291064#0 436291062 436291010 436291011 436291013 573865733#1"/>
    </person>
    <person id="ped8" type="ped_pedestrian" depart="24.94">
        <walk edges="-578942367#2 578942368#1 -578942371#1 -578942370 641705063#3 641705064#0 641705064#1 436291031 436291016#0 436291016#1 436291016#2 436291016#3 436291016#4 436291016#5 436291016#6 436291016#7 436291016#8 578934698"/>
    </person>
    <person id="ped9" type="ped_pedestrian" depart="28.06">
        <walk edges="578942370 641705063#3 -641705065 184708333 -184708333"/>
    </person>
    <person id="ped11" type="ped_pedestrian" depart="34.30">
        <walk edges="184708332 234953562 436291011 436291010 436291062 436291064#0 -578934717#0 -578934718#2"/>
    </person>
    <person id="ped12" type="ped_pedestrian" depart="37.41">
        <walk edges="641705146#2 641705146#1 641705146#0 642337373 234953562 634644489 -89927838#3 184708331"/>
    </person>
    <person id="ped13" type="ped_pedestrian" depart="40.53">
        <walk edges="-578934698 436291016#9 436291016#8 436291016#7 436291016#6 436291016#5 436291016#4 -5962129#0 -578934700#0 -578934699"/>
    </person>
    <person id="ped14" type="ped_pedestrian" depart="43.65">
        <walk edges="593766961 593766963 593766964 593766965 5962129#5 5962129#4 -5962129#3 -5962129#2 -5962129#1 -5962129#0 436291016#4 436291016#5 436291016#6 436291016#7 578934701"/>
    </person>
    <person id="ped15" type="ped_pedestrian" depart="46.77">
        <walk edges="578942370 641705063#2 641705063#1 -578942355 578942354#1"/>
    </person>
    <person id="ped16" type="ped_pedestrian" depart="49.88">
        <walk edges="436291064#1 642337372 642337374#1"/>
    </person>
    <person id="ped17" type="ped_pedestrian" depart="53.00">
        <walk edges="234953562 642337373 641705146#0 641705146#1 -578605862#2 578605861#0"/>
    </person>
    <person id="ped18" type="ped_pedestrian" depart="56.12">
        <walk edges="578942372#2 578942369#1 578942369#0 -578942370 641705063#3 641705064#0 641705064#1 436291031 436291062 436291064#0 -578934717#0 -578934718#2 -578934718#1 578934716 6024091#3 6024091#2 -5955850#1 578934709#0"/>
    </person>
    <person id="ped19" type="ped_pedestrian" depart="59.24">
        <walk edges="593766964 593766965 5962129#5 5962129#4 36054466#9 36054466#8 36054466#7 36054466#6 36054466#5 36054466#4 36054466#3 36054466#2 36054466#1 36054466#0 634644489 234953562 642337373 641705146#0 641705146#1 -578605862#2 578934691#0"/>
    </person>
    <person id="ped21" type="ped_pedestrian" depart="65.47">
        <walk edges="-578942371#0 -578942371#1 -578942370 641705063#3 -419814433#4 -419814433#2 -5962129#1 -5962129#0"/>
    </person>
    <person id="ped22" type="ped_pedestrian" depart="68.59">
        <walk edges="-578934691#0 -578605862#2 641705146#1 641705146#0 642337373 234953562 -641705065 641705063#3 -578942370 -578942371#1"/>
    </person>
    <person id="ped23" type="ped_pedestrian" depart="71.71">
        <walk edges="-578934700#1 419814433#1 -5962129#1 -5962129#0 -5955850#0"/>
    </person>
    <person id="ped24" type="ped_pedestrian" depart="74.83">
        <walk edges="578934713#0 -578934712 6024091#3 578934716 -578934718#1 -578934718#2 -578934717#0 436291064#0 436291062 436291010 436291011 234953562 184708334 184708337#2"/>
    </person>
    <person id="ped25" type="ped_pedestrian" depart="77.94">
        <walk edges="184708338 634644489 36054466#0 36054466#1 36054466#2 -578942365"/>
    </person>
    <person id="ped26" type="ped_pedestrian" depart="81.06">
        <walk edges="-593766963 -593766964 -593766965 5962129#5 5962129#4 36054466#9 36054466#8 36054466#7 36054466#6 36054466#5 641705063#2 641705063#3 641705064#0"/>
    </person>
    <person id="ped28" type="ped_pedestrian" depart="87.30">
        <walk edges="-578934726 419814433#4 641705063#3 641705063#2 641705063#1 -578942355 578942354#1"/>
    </person>
    <person id="ped29" type="ped_pedestrian" depart="90.41">
        <walk edges="-578934719 641705064#1 436291031 436291010 436291011 234953562"/>
    </person>
    <person id="ped30" type="ped_pedestrian" depart="93.53">
        <walk edges="89922370#5 641705063#0 641705063#1 641705063#2 641705063#3 641705064#0 641705064#1 436291031 436291062 436291064#0 -578934717#0 -578934718#2 -578934718#1 578934716 6024091#3 -578934712 578934713#1"/>
    </person>
    <person id="ped31" type="ped_pedestrian" depart="96.65">
        <walk edges="578605861#2 -578605861#2 -578605861#0 -578605862#2 641705146#1 641705146#0 642337372 436291064#1 436291064#0 436291062 436291031 641705064#1 -578934719 578934723"/>
    </person>
    <person id="ped33" type="ped_pedestrian" depart="102.89">
        <walk edges="-578942371#0 -578942365 36054466#2 36054466#1 36054466#0 89927838#3 -184711460"/>
    </person>
    <person id="ped34" type="ped_pedestrian" depart="106.00">
        <walk edges="-89927838#0 -89927838#3 36054466#0 36054466#1 36054466#2 36054466#3 36054466#4 36054466#5 36054466#6 36054466#7 36054466#8 36054466#9 5962129#4 5962129#5 -593766965 -593766964 -593766963"/>
    </person>
    <person id="ped35" type="ped_pedestrian" depart="109.12">
        <walk edges="-578942365 -578942367#2 578942368#1 -578942371#1 -578942370 641705063#3 641705064#0 641705064#1"/>
    </person>
    <person id="ped36" type="ped_pedestrian" depart="112.24">
        <walk edges="5955850#2 5955850#1 6024091#2 6024091#3 578934716 -578934718#1 -578934718#2 -578934717#0 436291064#0 436291062 436291010 436291011 234953562 634644489 -89927838#3 -89927838#0"/>
    </person>
    <person id="ped37" type="ped_pedestrian" depart="115.36">
        <walk edges="578934717#0 578934718#3 436291016#1 436291016#2 436291016#3 5962129#0 5962129#1 5962129#2 5962129#3 36054466#10"/>
    </person>
    <person id="ped38" type="ped_pedestrian" depart="118.47">
        <walk edges="623099335 -578934723 -578934719 641705064#1 436291031 436291016#0"/>
    </person>
    <person id="ped39" type="ped_pedestrian" depart="121.59">
        <walk edges="-593766962#1 -593766960 593766963 593766964 593766965 5962129#5 5962129#4 36054466#9 36054466#8 36054466#7 36054466#6 36054466#5 641705063#2 -578942370 -578942371#2 -578942372#2"/>
    </person>
    <person id="ped40" type="ped_pedestrian" depart="124.71">
        <walk edges="578605862#0 -578605862#2 641705146#1 641705146#0 642337373 234953562 634644489 36054466#0 36054466#1 36054466#2 36054466#3 36054466#4 36054466#5 36054466#6 36054466#7 36054466#8 36054466#9 5962129#4 5962129#5 593766965 593766964 593766963 -593766960 -593766962#1"/>
    </person>
    <person id="ped41" type="ped_pedestrian" depart="127.83">
        <walk edges="578934692 -578934692 642337374#1 642337373 234953562 634644489 36054466#0 36054466#1 36054466#2 36054466#3 36054466#4 36054466#5 36054466#6 36054466#7 36054466#8 36054466#9 5962129#4 5962129#5"/>
    </person>
    <person id="ped42" type="ped_pedestrian" depart="130.94">
        <walk edges="36054466#2 -578942365 -578942367#2 -578942367#1"/>
    </person>
    <person id="ped43" type="ped_pedestrian" depart="134.06">
        <walk edges="89927838#3 278328405#0 436291019 436291020#2 436291020#1"/>
    </person>
    <person id="ped44" type="ped_pedestrian" depart="137.18">
        <walk edges="-578934698 436291016#9 436291016#8 436291016#7 436291016#6 436291016#5 436291016#4 -5962129#0 -5962129#1 -419814433#2"/>
    </person>
    <person id="ped46" type="ped_pedestrian" depart="143.42">
        <walk edges="578942368#0 -578942367#2 -578942365 36054466#3 36054466#4 36054466#5 36054466#6 36054466#7 36054466#8"/>
    </person>
    <person id="ped47" type="ped_pedestrian" depart="146.53">
        <walk edges="-578605862#0 -578605862#2 641705146#1 641705146#0 642337373 234953562 634644489 278328405#0"/>
    </person>
    <person id="ped48" type="ped_pedestrian" depart="149.65">
        <walk edges="89927838#0 89927838#3 36054466#0 36054466#1 36054466#2 -578942365 -578942367#2 578942368#1 -578942371#1 -578942370 641705063#3 641705064#0 641705064#1 436291031 436291062"/>
    </person>
    <person id="ped49" type="ped_pedestrian" depart="152.77">
        <walk edges="642337374#1 642337373 234953562 634644489 36054466#0 36054466#1 36054466#2 36054466#3 36054466#4 36054466#5 36054466#6 36054466#7 36054466#8 36054466#9 5962129#4 5962129#5 593766965 593766964"/>
    </person>
    <person id="ped50" type="ped_pedestrian" depart="155.89">
        <walk edges="-184708337#1 -184708337#0 -89927838#3 36054466#0 36054466#1 36054466#2 36054466#3 36054466#4 36054466#5 36054466#6 36054466#7 36054466#8 36054466#9 5962129#4 5962129#5 593766965 593766964 593766963 -593766960 578942335"/>
    </person>
    <person id="ped51" type="ped_pedestrian" depart="159.00">
        <walk edges="578934722 623099335 -578934723 -578934719 641705064#1 436291031 436291062 436291064#0 436291064#1"/>
    </person>
    <person id="ped52" type="ped_pedestrian" depart="162.12">
        <walk edges="-593766963 -593766964 -593766965 -5962129#5 -5962129#4 -5962129#3 -5962129#2 -5962129#1 -5962129#0 -5955850#0 6024091#2 -578934712 578934713#1"/>
    </person>
    <person id="ped54" type="ped_pedestrian" depart="168.36">
        <walk edges="436291013 642337373 641705146#0 641705146#1"/>
    </person>
    <person id="ped55" type="ped_pedestrian" depart="171.48">
        <walk edges="5955850#2 5955850#1 5955850#0 -5962129#0 -5962129#1 -5962129#2 -5962129#3 -5962129#4 -5962129#5 -593766965 -593766964 -593766963 -593766960 -593766962#1"/>
    </person>
    <person id="ped56" type="ped_pedestrian" depart="174.59">
        <walk edges="436291019 278328405#0 36054466#0 -578942331"/>
    </person>
    <person id="ped57" type="ped_pedestrian" depart="177.71">
        <walk edges="6024091#5 6024091#3 6024091#2 5955850#1"/>
    </person>
    <person id="ped58" type="ped_pedestrian" depart="180.83">
        <walk edges="-5962129#2 -5962129#1 -5962129#0 -5955850#0 6024091#2 -578934712 578934713#1"/>
    </person>
    <person id="ped60" type="ped_pedestrian" depart="187.06">
        <walk edges="578942361#2 578942360#0 578942360#1 578942361#0 36054466#5 36054466#4 36054466#3 36054466#2 36054466#1 36054466#0 89927838#3 89927838#0 459317052"/>
    </person>
    <person id="ped61" type="ped_pedestrian" depart="190.18">
        <walk edges="578942365 -578942367#2 578942368#1 -578942371#1 -578942370 641705063#3 641705064#0 641705064#1 436291031 436291062 436291064#0"/>
    </person>
    <person id="ped63" type="ped_pedestrian" depart="196.42">
        <walk edges="-184708337#3 -184708337#2 -184708337#1 -184708337#0 -89927838#3 36054466#0 36054466#1 36054466#2 36054466#3 36054466#4 641705063#1"/>
    </person>
    <person id="ped64" type="ped_pedestrian" depart="199.54">
        <walk edges="5962129#0 436291016#3 436291016#2 436291016#1 436291016#0 436291031 641705064#1 641705064#0 641705063#3 -578942370 578942369#0 578942369#1 578942372#2"/>
    </person>
    <person id="ped65" type="ped_pedestrian" depart="202.65">
        <walk edges="-5962129#5 -5962129#4 36054466#9 36054466#8 36054466#7 36054466#6 36054466#5 36054466#4 36054466#3 36054466#2 36054466#1 36054466#0 634644489 234953562 642337373 641705146#0 641705146#1 -578605862#2 -578605861#0 -578605861#1"/>
    </person>
    <person id="ped66" type="ped_pedestrian" depart="205.77">
        <walk edges="5962129#0 436291016#3 436291016#2 436291016#1 436291016#0 436291031 641705064#1 641705064#0 641705065"/>
    </person>
    <person id="ped67" type="ped_pedestrian" depart="208.89">
        <walk edges="-578934691#1 578934691#1 -578934691#0 -578605862#2 641705146#1 641705146#0 642337372 436291064#1 -578934717#0 578934718#3 436291016#1 436291016#2 436291016#3 436291016#4 436291016#5 436291016#6 436291016#7"/>
    </person>
    <person id="ped68" type="ped_pedestrian" depart="212.01">
        <walk edges="-578605862#2 641705146#1 641705146#0 642337373 234953562 634644489 36054466#0 36054466#1 36054466#2 36054466#3 36054466#4 36054466#5 578942361#0 578942361#1"/>
    </person>
    <person id="ped69" type="ped_pedestrian" depart="215.12">
        <walk edges="578942362 5962129#2 5962129#1 5962129#0 -5955850#0 6024091#2 -578934712"/>
    </person>
    <person id="ped70" type="ped_pedestrian" depart="218.24">
        <walk edges="436291016#4 436291016#3 436291016#2 436291016#1 578934718#3 -578934717#0 436291064#1 642337372 641705146#0 641705146#1 -578605862#2 578605861#0"/>
    </person>
    <person id="ped71" type="ped_pedestrian" depart="221.36">
        <walk edges="-593766963 -593766964 -593766965 -5962129#5 -5962129#4 -5962129#3 -5962129#2 -5962129#1 -5962129#0 5955850#0 5955850#1"/>
    </person>
    <person id="ped72" type="ped_pedestrian" depart="224.48">
        <walk edges="36054466#8 36054466#7 36054466#6 36054466#5 36054466#4 36054466#3 -578942365"/>
    </person>
    <person id="ped73" type="ped_pedestrian" depart="227.59">
        <walk edges="459317052 89927838#0 89927838#3 36054466#0 36054466#1 36054466#2 36054466#3 36054466#4 641705063#1 -578942355 578942354#1"/>
    </person>
    <person id="ped74" type="ped_pedestrian" depart="230.71">
        <walk edges="-578942357 593766965 5962129#5 5962129#4 36054466#9 36054466#8 36054466#7 36054466#6 36054466#5 641705063#2 641705063#3 -641705065"/>
    </person>
    <person id="ped75" type="ped_pedestrian" depart="233.83">
        <walk edges="89927838#0 89927838#3 36054466#0 36054466#1 36054466#2 -578942365 -578942367#2 578942368#1 -578942371#1 -578942370 641705063#3 641705064#0 641705064#1 436291031 436291062 436291064#0 -578934717#0 -578934718#2 -578934718#1 578934716"/>
    </person>
    <person id="ped76" type="ped_pedestrian" depart="236.95">
        <walk edges="419814433#2 5962129#2 5962129#3 5962129#4 5962129#5 593766965 593766964 593766963 436291021#0"/>
    </person>
    <person id="ped78" type="ped_pedestrian" depart="243.18">
        <walk edges="184708331 -89927838#3 634644489 234953562 436291011 436291010 436291016#0 436291016#1 436291016#2 436291016#3 436291016#4 436291016#5 436291016#6 436291016#7 436291016#8 578934698"/>
    </person>
    <person id="ped79" type="ped_pedestrian" depart="246.30">
        <walk edges="-578942371#0 578942368#1 -578942367#2"/>
    </person>
    <person id="ped80" type="ped_pedestrian" depart="249.42">
        <walk edges="-578934689 641705146#0 642337372 6024091#5 6024091#3 578934712"/>
    </person>
    <person id="ped81" type="ped_pedestrian" depart="252.54">
        <walk edges="-578942371#0 -578942371#1 -578942370 641705063#3 641705064#0 641705064#1 436291031 436291062 436291064#0 -578934717#0 -578934718#2 -578934718#1 578934716 6024091#3 6024091#2"/>
    </person>
    <person id="ped82" type="ped_pedestrian" depart="255.65">
        <walk edges="593766964 593766965 5962129#5 5962129#4 36054466#9 36054466#8 36054466#7 36054466#6 36054466#5 36054466#4 36054466#3 36054466#2 36054466#1 36054466#0 634644489 234953562 642337373 641705146#0 641705146#1 -578605862#2"/>
    </person>
    <person id="ped83" type="ped_pedestrian" depart="258.77">
        <walk edges="-578942371#2 -578942370 641705063#3 641705064#0 641705064#1 436291031 436291062 436291064#0 -578934717#0 578934718#2"/>
    </person>
    <person id="ped84" type="ped_pedestrian" depart="261.89">
        <walk edges="-578942367#0 578942369#0 -578942370 641705063#3 641705064#0 641705064#1 436291031 436291016#0 436291016#1 436291016#2 -578934714"/>
    </person>
    <person id="ped85" type="ped_pedestrian" depart="265.01">
        <walk edges="641705063#3 -641705065 234953562 642337373 641705146#0 641705146#1 -578605862#2 -578934691#0 578934690"/>
    </person>
    <person id="ped86" type="ped_pedestrian" depart="268.13">
        <walk edges="436291016#3 436291016#2 436291016#1 436291016#0 436291031 641705064#1 641705064#0 641705063#3 -578942370 578942369#0 578942367#1"/>
    </person>
    <person id="ped87" type="ped_pedestrian" depart="271.24">
        <walk edges="578942370 641705063#2 641705063#1 -578942355"/>
    </person>
    <person id="ped88" type="ped_pedestrian" depart="274.36">
        <walk edges="-578934699 578934700#1 419814433#0"/>
    </person>
    <person id="ped89" type="ped_pedestrian" depart="277.48">
        <walk edges="36054466#8 578942362 5962129#2 5962129#1 5962129#0 436291016#3 436291016#2"/>
    </person>
    <person id="ped90" type="ped_pedestrian" depart="280.60">
        <walk edges="578942354#1 -578942355 641705063#1 641705063#2 641705063#3 641705064#0 641705064#1 436291031 436291062 436291064#0 -578934717#0 578934718#3"/>
    </person>
    <person id="ped91" type="ped_pedestrian" depart="283.71">
        <walk edges="642751754#1 642751754#0 278328405#0 36054466#0 36054466#1 36054466#2 -578942365 -578942367#2 578942368#1 -578942371#1 -578942370 641705063#3 -419814433#4 -419814433#2 -5962129#1 -578934700#0"/>
    </person>
    <person id="ped92" type="ped_pedestrian" depart="286.83">
        <walk edges="36054466#2 36054466#1 36054466#0 -89927838#3 184708331"/>
    </person>
    <person id="ped93" type="ped_pedestrian" depart="289.95">
        <walk edges="593766964 593766965 5962129#5 5962129#4 36054466#9 36054466#8 36054466#7 36054466#6 36054466#5 641705063#2 -578942370 -578942371#2 -578942372#2"/>
    </person>
    <person id="ped94" type="ped_pedestrian" depart="293.07">
        <walk edges="-578942344 -184711461 89922370#5 641705063#0 641705063#1 641705063#2 641705063#3 641705064#0 641705064#1 436291031 436291010 436291011"/>
    </person>
    <person id="ped95" type="ped_pedestrian" depart="296.19">
        <walk edges="36054466#8 578942362 5962129#2 5962129#1 5962129#0 -5955850#0"/>
    </person>
    <person id="ped96" type="ped_pedestrian" depart="299.30">
        <walk edges="-578942372#2 -578942371#2 -578942370 641705063#2 641705063#1 641705063#0"/>
    </person>
    <person id="ped97" type="ped_pedestrian" depart="302.42">
        <walk edges="419814433#4 419814433#2 5962129#2 5962129#3 5962129#4 5962129#5 593766965 593766964"/>
    </person>
    <person id="ped98" type="ped_pedestrian" depart="305.54">
        <walk edges="578605861#0 -578605862#2 641705146#1 641705146#0 642337373 234953562 -641705065 -419814433#4"/>
    </person>
    <person id="ped99" type="ped_pedestrian" depart="308.66">
        <walk edges="89927838#3 278328405#0 436291019 436291020#2 -578942375 578942375"/>
    </person>
    <person id="ped100" type="ped_pedestrian" depart="311.77">
        <walk edges="642337374#0 642337374#1 642337373 234953562 634644489 36054466#0 36054466#1 36054466#2 36054466#3 36054466#4 641705063#1"/>
    </person>
    <person id="ped101" type="ped_pedestrian" depart="314.89">
        <walk edges="593766961 593766963 593766964 593766965 5962129#5 5962129#4 5962129#3 5962129#2 419814433#2 -578934726 578934724#0 -578934723"/>
    </person>
    <person id="ped102" type="ped_pedestrian" depart="318.01">
        <walk edges="436291016#7 436291016#6 436291016#5 436291016#4 436291016#3 436291016#2 436291016#1 436291016#0 436291031 641705064#1 641705064#0 641705063#3 -578942370 578942369#0 -578942367#0"/>
    </person>
    <person id="ped103" type="ped_pedestrian" depart="321.13">
        <walk edges="36054466#2 36054466#1 36054466#0 634644489 234953562 642337373 641705146#0 641705146#1 -578605862#2 -578605861#0 -578605861#1"/>
    </person>
    <person id="ped104" type="ped_pedestrian" depart="324.24">
        <walk edges="234953562 634644489 36054466#0 36054466#1 36054466#2 36054466#3 36054466#4 641705063#1 641705063#0 89922370#5 89922370#0"/>
    </person>
    <person id="ped105" type="ped_pedestrian" depart="327.36">
        <walk edges="-593766963 -593766964 -593766965 5962129#5 5962129#4 36054466#9 36054466#8 36054466#7 36054466#6 36054466#5 36054466#4 36054466#3 -578942365 -578942367#2 578942367#1"/>
    </person>
    <person id="ped106" type="ped_pedestrian" depart="330.48">
        <walk edges="436291013 234953562 634644489 36054466#0 36054466#1 36054466#2 36054466#3 36054466#4 36054466#5 36054466#6 36054466#7 36054466#8"/>
    </person>
    <person id="ped107" type="ped_pedestrian" depart="333.60">
        <walk edges="641705146#2 641705146#1 641705146#0 642337373 234953562 634644489 -89927838#3 -89927838#0 89927838#0"/>
    </person>
    <person id="ped108" type="ped_pedestrian" depart="336.72">
        <walk edges="578605861#1 -578605861#0 -578605862#2 641705146#1 641705146#0 642337373 234953562 634644489 36054466#0 36054466#1 36054466#2 36054466#3 36054466#4 36054466#5 36054466#6 36054466#7 36054466#8 36054466#9 5962129#4 5962129#5 593766965 593766964 593766963 -593766960 578942335 578942334"/>
    </person>
    <person id="ped109" type="ped_pedestrian" depart="339.83">
        <walk edges="-578934718#2 578934718#3 436291016#1 436291016#2 436291016#3 -5962129#0 -5962129#1 -5962129#2"/>
    </person>
    <person id="ped110" type="ped_pedestrian" depart="342.95">
        <walk edges="642337374#0 642337374#1 641705146#0 641705146#1 -578605862#2 -578934691#0 578934691#1"/>
    </person>
    <person id="ped111" type="ped_pedestrian" depart="346.07">
        <walk edges="573865733#0 573865733#1 436291013 234953562 634644489 36054466#0 36054466#1 36054466#2 36054466#3 36054466#4 36054466#5 578942361#0 578942360#1 578942360#0"/>
    </person>
    <person id="ped112" type="ped_pedestrian" depart="349.19">
        <walk edges="-578605861#1 -578605861#0 -578605862#2 641705146#1 641705146#0 642337374#1 -578934692 578934692"/>
    </person>
    <person id="ped113" type="ped_pedestrian" depart="352.30">
        <walk edges="436291019 436291020#2 436291020#1 436291020#0 436291018 593766961 593766960 593766962#0"/>
    </person>
    <person id="ped114" type="ped_pedestrian" depart="355.42">
        <walk edges="-578934718#3 578934718#3 -578934717#0 436291064#1 642337372"/>
    </person>
    <person id="ped115" type="ped_pedestrian" depart="358.54">
        <walk edges="-578934691#0 -578605862#2 641705146#1 641705146#0 642337373 234953562 634644489 36054466#0 36054466#1 36054466#2 36054466#3 36054466#4 36054466#5 36054466#6 36054466#7 36054466#8 36054466#9 5962129#4 5962129#5 593766965 593766964 593766963 -593766960 578942335 -578942334"/>
    </person>
    <person id="ped116" type="ped_pedestrian" depart="361.66">
        <walk edges="578934700#0 -5962129#0 436291016#3 436291016#2 436291016#1 578934718#3"/>
    </person>
    <person id="ped118" type="ped_pedestrian" depart="367.89">
        <walk edges="5962129#3 5962129#2 -419814433#2 -419814433#4 641705063#3 -578942370 578942369#0 578942369#1 -578942372#1"/>
    </person>
    <person id="ped119" type="ped_pedestrian" depart="371.01">
        <walk edges="578934700#0 -5962129#0 -5955850#0 -5955850#1 578934709#0"/>
    </person>
    <person id="ped120" type="ped_pedestrian" depart="374.13">
        <walk edges="36054466#7 36054466#6 36054466#5 36054466#4 36054466#3 36054466#2 36054466#1 36054466#0 634644489 234953562 642337373 642337374#1 -578934692 578934692"/>
    </person>
    <person id="ped121" type="ped_pedestrian" depart="377.25">
        <walk edges="436291031 641705064#1 641705064#0 641705063#3"/>
    </person>
    <person id="ped123" type="ped_pedestrian" depart="383.48">
        <walk edges="-578942371#2 -578942370 641705063#2 36054466#5 36054466#6 36054466#7 36054466#8 36054466#9 36054466#10"/>
    </person>
    <person id="ped124" type="ped_pedestrian" depart="386.60">
        <walk edges="578934718#3 436291016#1 436291016#2 436291016#3 -5962129#0 -5962129#1 -5962129#2 -5962129#3"/>
    </person>
    <person id="ped125" type="ped_pedestrian" depart="389.72">
        <walk edges="-89927838#0 -89927838#3 36054466#0 36054466#1 36054466#2 36054466#3 36054466#4 36054466#5 578942361#0 578942360#1"/>
    </person>
    <person id="ped126" type="ped_pedestrian" depart="392.83">
        <walk edges="-578934689 641705146#0 642337372 436291064#1 436291064#0 436291062 436291016#0"/>
    </person>
    <person id="ped127" type="ped_pedestrian" depart="395.95">
        <walk edges="89927838#3 89927838#0"/>
    </person>
    <person id="ped128" type="ped_pedestrian" depart="399.07">
        <walk edges="-578934689 641705146#0 642337373 234953562 -641705065 641705063#3 -578942370 578942369#0 -578942367#0"/>
    </person>
    <person id="ped129" type="ped_pedestrian" depart="402.19">
        <walk edges="-593766963 -593766964 -593766965 5962129#5 5962129#4 36054466#9 36054466#8 36054466#7 36054466#6 36054466#5 641705063#2 641705063#3"/>
    </person>
    <person id="ped130" type="ped_pedestrian" depart="405.31">
        <walk edges="5962129#1 5962129#0"/>
    </person>
    <person id="ped131" type="ped_pedestrian" depart="408.42">
        <walk edges="184708338 234953562 436291011 436291010 436291016#0 -578934718#3"/>
    </person>
    <person id="ped134" type="ped_pedestrian" depart="417.78">
        <walk edges="578934717#0 436291064#0 436291062 436291010 436291011 234953562 184708334 -184708337#1 -184708337#0"/>
    </person>
    <person id="ped135" type="ped_pedestrian" depart="420.89">
        <walk edges="578942371#1 -578942370 641705063#2 36054466#5 36054466#6 36054466#7 36054466#8 36054466#9 -5962129#3"/>
    </person>
    <person id="ped136" type="ped_pedestrian" depart="424.01">
        <walk edges="578934718#0 -578934718#2 -578934717#0 436291064#0 436291062 436291031 641705064#1 641705064#0"/>
    </person>
    <person id="ped137" type="ped_pedestrian" depart="427.13">
        <walk edges="-578934714 436291016#3 -5955850#0 -5955850#1 -578934709#0"/>
    </person>
    <person id="ped139" type="ped_pedestrian" depart="433.37">
        <walk edges="-593766964 -593766965 -5962129#5 -5962129#4 -5962129#3 -5962129#2 -5962129#1 -5962129#0 436291016#4 578934702"/>
    </person>
    <person id="ped140" type="ped_pedestrian" depart="436.48">
        <walk edges="578942334 578942335 -593766960 593766963 593766964 593766965 5962129#5 -578942358"/>
    </person>
    <person id="ped141" type="ped_pedestrian" depart="439.60">
        <walk edges="578934712 6024091#2 -5955850#0 5962129#0 5962129#1 5962129#2 5962129#3 5962129#4 5962129#5 593766965 593766964 593766963 -593766960 -593766962#1"/>
    </person>
    <person id="ped142" type="ped_pedestrian" depart="442.72">
        <walk edges="436291016#7 436291016#6 436291016#5 436291016#4 -5955850#0 6024091#2"/>
    </person>
    <person id="ped143" type="ped_pedestrian" depart="445.84">
        <walk edges="593766960 593766963 593766964 593766965 5962129#5 5962129#4 -5962129#3 -5962129#2 -5962129#1 -5962129#0 436291016#4 436291016#5 436291016#6 436291016#7 436291016#8 436291016#9 -578934698"/>
    </person>
    <person id="ped144" type="ped_pedestrian" depart="448.95">
        <walk edges="36054466#8 578942362 5962129#2 5962129#1 5962129#0 -5955850#0"/>
    </person>
    <person id="ped145" type="ped_pedestrian" depart="452.07">
        <walk edges="-184708331 -89927838#3 36054466#0 36054466#1 36054466#2 36054466#3 36054466#4 36054466#5 36054466#6 36054466#7 578942363"/>
    </person>
    <person id="ped146" type="ped_pedestrian" depart="455.19">