<?xml version="1.0" encoding="UTF-8"?>

<!-- generated on Wed Aug  7 14:01:33 2019 by Eclipse SUMO duarouter Version 1.2.0
<configuration xmlns:xsi="http://www.w3.org/2001/XMLSchema-instance" xsi:noNamespaceSchemaLocation="http://sumo.dlr.de/xsd/duarouterConfiguration.xsd">

    <input>
        <net-file value="osm.net.xml"/>
        <route-files value="osm.bus.trips.xml"/>
    </input>

    <output>
        <output-file value="osm.bus.trips.xml.tmp"/>
        <write-trips value="true"/>
    </output>

    <time>
        <begin value="0"/>
        <end value="3600.0"/>
    </time>

    <report>
        <no-warnings value="true"/>
        <ignore-errors value="true"/>
        <no-step-log value="true"/>
    </report>

</configuration>
-->

<routes xmlns:xsi="http://www.w3.org/2001/XMLSchema-instance" xsi:noNamespaceSchemaLocation="http://sumo.dlr.de/xsd/routes_file.xsd">
    <vType id="bus_bus" vClass="bus"/>
    <trip id="bus0" type="bus_bus" depart="0.00" departLane="best" departSpeed="max" from="6024091#0" to="5955850#2"/>
    <trip id="bus1" type="bus_bus" depart="16.94" departLane="best" from="641705064#0" to="5955850#2"/>
    <trip id="bus2" type="bus_bus" depart="33.88" departLane="best" from="436291064#1" to="5955850#2"/>
    <trip id="bus3" type="bus_bus" depart="50.82" departLane="best" departSpeed="max" from="89922370#0" to="436291016#7"/>
    <trip id="bus4" type="bus_bus" depart="67.77" departLane="best" departSpeed="max" from="-5955850#2" to="593766962#0"/>
    <trip id="bus5" type="bus_bus" depart="84.71" departLane="best" departSpeed="max" from="-5955850#2" to="436291016#3"/>
    <trip id="bus6" type="bus_bus" depart="101.65" departLane="best" departSpeed="max" from="89922370#0" to="641705146#2"/>
    <trip id="bus7" type="bus_bus" depart="118.59" departLane="best" departSpeed="max" from="-5955850#2" to="36054466#1"/>
    <trip id="bus8" type="bus_bus" depart="135.53" departLane="best" departSpeed="max" from="89922370#0" to="436291064#0"/>
    <trip id="bus9" type="bus_bus" depart="152.47" departLane="best" departSpeed="max" from="436291021#0" to="641705146#2"/>
    <trip id="bus10" type="bus_bus" depart="169.42" departLane="best" departSpeed="max" from="573865733#0" to="5955850#2"/>
    <trip id="bus11" type="bus_bus" depart="186.36" departLane="best" departSpeed="max" from="573865733#0" to="593766962#0"/>
    <trip id="bus13" type="bus_bus" depart="220.24" departLane="best" departSpeed="max" from="-5955850#2" to="-5962129#1"/>
    <trip id="bus14" type="bus_bus" depart="237.18" departLane="best" departSpeed="max" from="-5955850#2" to="436291031"/>
    <trip id="bus15" type="bus_bus" depart="254.12" departLane="best" departSpeed="max" from="89922370#0" to="-5962129#1"/>
    <trip id="bus16" type="bus_bus" depart="271.07" departLane="best" departSpeed="max" from="-5955850#2" to="436291016#3"/>
    <trip id="bus17" type="bus_bus" depart="288.01" departLane="best" from="36054466#3" to="5955850#2"/>
    <trip id="bus18" type="bus_bus" depart="304.95" departLane="best" departSpeed="max" from="-5955850#2" to="436291016#2"/>
    <trip id="bus19" type="bus_bus" depart="321.89" departLane="best" departSpeed="max" from="89922370#0" to="5955850#2"/>
    <trip id="bus20" type="bus_bus" depart="338.83" departLane="best" from="-641705065" to="5955850#2"/>
    <trip id="bus21" type="bus_bus" depart="355.77" departLane="best" departSpeed="max" from="-5955850#2" to="436291016#2"/>
    <trip id="bus22" type="bus_bus" depart="372.72" departLane="best" departSpeed="max" from="642337374#0" to="593766962#0"/>
    <trip id="bus23" type="bus_bus" depart="389.66" departLane="best" from="36054466#0" to="5955850#2"/>
    <trip id="bus24" type="bus_bus" depart="406.60" departLane="best" departSpeed="max" from="573865733#0" to="5955850#2"/>
    <trip id="bus25" type="bus_bus" depart="423.54" departLane="best" departSpeed="max" from="419814433#0" to="5955850#2"/>
    <trip id="bus26" type="bus_bus" depart="440.48" departLane="best" departSpeed="max" from="-5955850#2" to="436291016#7"/>
    <trip id="bus27" type="bus_bus" depart="457.42" departLane="best" departSpeed="max" from="-5955850#2" to="-419814433#0"/>
    <trip id="bus28" type="bus_bus" depart="474.36" departLane="best" departSpeed="max" from="419814433#0" to="5955850#2"/>
    <trip id="bus29" type="bus_bus" depart="491.31" departLane="best" departSpeed="max" from="-5955850#2" to="642751754#1"/>
    <trip id="bus30" type="bus_bus" depart="508.25" departLane="best" departSpeed="max" from="-5955850#2" to="642751754#1"/>
    <trip id="bus31" type="bus_bus" depart="525.19" departLane="best" departSpeed="max" from="6024091#0" to="642751754#1"/>
    <trip id="bus32" type="bus_bus" depart="542.13" departLane="best" departSpeed="max" from="89922370#0" to="436291016#9"/>
    <trip id="bus33" type="bus_bus" depart="559.07" departLane="best" departSpeed="max" from="6024091#0" to="642751754#0"/>
    <trip id="bus34" type="bus_bus" depart="576.01" departLane="best" from="36054466#0" to="5955850#2"/>
    <trip id="bus35" type="bus_bus" depart="592.96" departLane="best" from="5962129#3" to="5955850#2"/>
    <trip id="bus36" type="bus_bus" depart="609.90" departLane="best" departSpeed="max" from="573865733#0" to="593766962#0"/>
    <trip id="bus37" type="bus_bus" depart="626.84" departLane="best" departSpeed="max" from="419814433#0" to="5955850#2"/>
    <trip id="bus39" type="bus_bus" depart="660.72" departLane="best" departSpeed="max" from="-5955850#2" to="642751754#1"/>
    <trip id="bus40" type="bus_bus" depart="677.66" departLane="best" from="-641705065" to="5955850#2"/>
    <trip id="bus41" type="bus_bus" depart="694.61" departLane="best" departSpeed="max" from="573865733#0" to="36054466#10"/>
    <trip id="bus42" type="bus_bus" depart="711.55" departLane="best" from="419814433#1" to="5955850#2"/>
    <trip id="bus43" type="bus_bus" depart="728.49" departLane="best" departSpeed="max" from="642337374#0" to="593766962#0"/>
    <trip id="bus44" type="bus_bus" depart="745.43" departLane="best" departSpeed="max" from="6024091#0" to="642751754#1"/>
    <trip id="bus45" type="bus_bus" depart="762.37" departLane="best" departSpeed="max" from="-5955850#2" to="36054466#10"/>
    <trip id="bus46" type="bus_bus" depart="779.31" departLane="best" departSpeed="max" from="-5955850#2" to="642751754#0"/>
    <trip id="bus47" type="bus_bus" depart="796.26" departLane="best" departSpeed="max" from="-5955850#2" to="436291016#6"/>
    <trip id="bus48" type="bus_bus" depart="813.20" departLane="best" departSpeed="max" from="89922370#0" to="436291016#10"/>
    <trip id="bus49" type="bus_bus" depart="830.14" departLane="best" departSpeed="max" from="6024091#0" to="-89927838#0"/>
    <trip id="bus50" type="bus_bus" depart="847.08" departLane="best" departSpeed="max" from="-5955850#2" to="436291062"/>
    <trip id="bus51" type="bus_bus" depart="864.02" departLane="best" departSpeed="max" from="6024091#0" to="436291029"/>
    <trip id="bus52" type="bus_bus" depart="880.96" departLane="best" departSpeed="max" from="-5955850#2" to="436291020#1"/>
    <trip id="bus53" type="bus_bus" depart="897.90" departLane="best" departSpeed="max" from="89922370#0" to="-419814433#1"/>
    <trip id="bus54" type="bus_bus" depart="914.85" departLane="best" departSpeed="max" from="6024091#0" to="278328405#1"/>
    <trip id="bus55" type="bus_bus" depart="931.79" departLane="best" departSpeed="max" from="6024091#0" to="642751754#1"/>
    <trip id="bus56" type="bus_bus" depart="948.73" departLane="best" departSpeed="max" from="-5955850#2" to="641705146#1"/>
    <trip id="bus57" type="bus_bus" depart="965.67" departLane="best" departSpeed="max" from="89922370#0" to="641705065"/>
    <trip id="bus58" type="bus_bus" depart="982.61" departLane="best" departSpeed="max" from="89922370#0" to="641705146#2"/>
    <trip id="bus59" type="bus_bus" depart="999.55" departLane="best" departSpeed="max" from="-5955850#2" to="-419814433#0"/>
    <trip id="bus60" type="bus_bus" depart="1016.50" departLane="best" departSpeed="max" from="89922370#0" to="-5955850#0"/>
    <trip id="bus61" type="bus_bus" depart="1033.44" departLane="best" departSpeed="max" from="-5955850#2" to="436291020#2"/>
    <trip id="bus62" type="bus_bus" depart="1050.38" departLane="best" departSpeed="max" from="573865733#0" to="593766962#0"/>
    <trip id="bus63" type="bus_bus" depart="1067.32" departLane="best" departSpeed="max" from="-5955850#2" to="436291010"/>
    <trip id="bus64" type="bus_bus" depart="1084.26" departLane="best" departSpeed="max" from="89927838#0" to="5955850#2"/>
    <trip id="bus65" type="bus_bus" depart="1101.20" departLane="best" departSpeed="max" from="89922370#0" to="641705146#0"/>
    <trip id="bus66" type="bus_bus" depart="1118.15" departLane="best" departSpeed="max" from="-5955850#2" to="36054466#4"/>
    <trip id="bus68" type="bus_bus" depart="1152.03" departLane="best" departSpeed="max" from="6024091#0" to="436291029"/>
    <trip id="bus69" type="bus_bus" depart="1168.97" departLane="best" departSpeed="max" from="-5955850#2" to="36054466#4"/>
    <trip id="bus70" type="bus_bus" depart="1185.91" departLane="best" from="436291018" to="5955850#2"/>
    <trip id="bus73" type="bus_bus" depart="1236.74" departLane="best" departSpeed="max" from="-5955850#2" to="593766962#0"/>
    <trip id="bus74" type="bus_bus" depart="1253.68" departLane="best" departSpeed="max" from="573865733#0" to="593766962#0"/>
    <trip id="bus75" type="bus_bus" depart="1270.62" departLane="best" from="-593766965" to="5955850#2"/>
    <trip id="bus76" type="bus_bus" depart="1287.56" departLane="best" departSpeed="max" from="-5955850#2" to="234953562"/>
    <trip id="bus77" type="bus_bus" depart="1304.50" departLane="best" departSpeed="max" from="-5955850#2" to="641705063#1"/>
    <trip id="bus79" type="bus_bus" depart="1338.39" departLane="best" departSpeed="max" from="419814433#0" to="5955850#2"/>
    <trip id="bus80" type="bus_bus" depart="1355.33" departLane="best" departSpeed="max" from="6024091#0" to="641705146#2"/>
    <trip id="bus81" type="bus_bus" depart="1372.27" departLane="best" departSpeed="max" from="89922370#0" to="6024091#2"/>
    <trip id="bus82" type="bus_bus" depart="1389.21" departLane="best" departSpeed="max" from="-5955850#2" to="419814433#1"/>
    <trip id="bus83" type="bus_bus" depart="1406.15" departLane="best" departSpeed="max" from="436291021#0" to="5955850#2"/>
    <trip id="bus84" type="bus_bus" depart="1423.09" departLane="best" from="-5962129#1" to="5955850#2"/>
    <trip id="bus85" type="bus_bus" depart="1440.04" departLane="best" departSpeed="max" from="89922370#0" to="641705146#2"/>
    <trip id="bus86" type="bus_bus" depart="1456.98" departLane="best" departSpeed="max" from="-5955850#2" to="278328405#0"/>
    <trip id="bus87" type="bus_bus" depart="1473.92" departLane="best" from="593766965" to="5955850#2"/>
    <trip id="bus88" type="bus_bus" depart="1490.86" departLane="best" from="234953562" to="5955850#2"/>
    <trip id="bus89" type="bus_bus" depart="1507.80" departLane="best" departSpeed="max" from="89922370#0" to="641705146#2"/>
    <trip id="bus90" type="bus_bus" depart="1524.74" departLane="best" departSpeed="max" from="-5955850#2" to="642751754#1"/>
    <trip id="bus91" type="bus_bus" depart="1541.69" departLane="best" departSpeed="max" from="89922370#0" to="641705146#2"/>
    <trip id="bus92" type="bus_bus" depart="1558.63" departLane="best" departSpeed="max" from="-5955850#2" to="-89927838#0"/>
    <trip id="bus93" type="bus_bus" depart="1575.57" departLane="best" departSpeed="max" from="-5955850#2" to="36054466#7"/>
    <trip id="bus94" type="bus_bus" depart="1592.51" departLane="best" departSpeed="max" from="-5955850#2" to="-89927838#0"/>
    <trip id="bus96" type="bus_bus" depart="1626.39" departLane="best" departSpeed="max" from="89922370#0" to="-419814433#0"/>
    <trip id="bus97" type="bus_bus" depart="1643.34" departLane="best" from="436291011" to="5955850#2"/>
    <trip id="bus98" type="bus_bus" depart="1660.28" departLane="best" departSpeed="max" from="573865733#0" to="5955850#2"/>
    <trip id="bus99" type="bus_bus" depart="1677.22" departLane="best" departSpeed="max" from="89922370#0" to="5955850#1"/>
    <trip id="bus100" type="bus_bus" depart="1694.16" departLane="best" from="36054466#9" to="5955850#2"/>
    <trip id="bus101" type="bus_bus" depart="1711.10" departLane="best" departSpeed="max" from="89922370#0" to="436291016#0"/>
    <trip id="bus102" type="bus_bus" depart="1728.04" departLane="best" from="36054466#0" to="5955850#2"/>
    <trip id="bus104" type="bus_bus" depart="1761.93" departLane="best" departSpeed="max" from="89922370#0" to="436291016#3"/>
    <trip id="bus105" type="bus_bus" depart="1778.87" departLane="best" departSpeed="max" from="-5955850#2" to="-419814433#0"/>
    <trip id="bus106" type="bus_bus" depart="1795.81" departLane="best" departSpeed="max" from="-5955850#2" to="36054466#7"/>
    <trip id="bus107" type="bus_bus" depart="1812.75" departLane="best" from="36054466#8" to="5955850#2"/>
    <trip id="bus108" type="bus_bus" depart="1829.69" departLane="best" departSpeed="max" from="-5955850#2" to="436291062"/>
    <trip id="bus109" type="bus_bus" depart="1846.63" departLane="best" from="36054466#8" to="5955850#2"/>
    <trip id="bus110" type="bus_bus" depart="1863.58" departLane="best" departSpeed="max" from="89922370#0" to="5955850#2"/>
    <trip id="bus111" type="bus_bus" depart="1880.52" departLane="best" departSpeed="max" from="89927838#0" to="5955850#2"/>
    <trip id="bus112" type="bus_bus" depart="1897.46" departLane="best" departSpeed="max" from="-5955850#2" to="36054466#8"/>
    <trip id="bus114" type="bus_bus" depart="1931.34" departLane="best" departSpeed="max" from="573865733#0" to="593766962#0"/>
    <trip id="bus115" type="bus_bus" depart="1948.28" departLane="best" from="641705064#1" to="5955850#2"/>
    <trip id="bus116" type="bus_bus" depart="1965.23" departLane="best" departSpeed="max" from="-5955850#2" to="36054466#7"/>
    <trip id="bus117" type="bus_bus" depart="1982.17" departLane="best" from="-5962129#5" to="5955850#2"/>
    <trip id="bus118" type="bus_bus" depart="1999.11" departLane="best" departSpeed="max" from="-5955850#2" to="436291016#1"/>
    <trip id="bus119" type="bus_bus" depart="2016.05" departLane="best" departSpeed="max" from="6024091#0" to="436291029"/>
    <trip id="bus120" type="bus_bus" depart="2032.99" departLane="best" departSpeed="max" from="419814433#0" to="5955850#2"/>
    <trip id="bus122" type="bus_bus" depart="2066.88" departLane="best" from="419814433#1" to="5955850#2"/>
    <trip id="bus123" type="bus_bus" depart="2083.82" departLane="best" departSpeed="max" from="-5955850#2" to="641705146#2"/>
    <trip id="bus124" type="bus_bus" depart="2100.76" departLane="best" departSpeed="max" from="419814433#0" to="5955850#2"/>
    <trip id="bus125" type="bus_bus" depart="2117.70" departLane="best" from="36054466#0" to="5955850#2"/>
    <trip id="bus126" type="bus_bus" depart="2134.64" departLane="best" from="-419814433#2" to="5955850#2"/>
    <trip id="bus127" type="bus_bus" depart="2151.58" departLane="best" departSpeed="max" from="-5955850#2" to="436291020#0"/>
    <trip id="bus128" type="bus_bus" depart="2168.53" departLane="best" from="436291010" to="5955850#2"/>
    <trip id="bus130" type="bus_bus" depart="2202.41" departLane="best" departSpeed="max" from="6024091#0" to="5955850#2"/>
    <trip id="bus131" type="bus_bus" depart="2219.35" departLane="best" departSpeed="max" from="6024091#0" to="-89927838#0"/>
    <trip id="bus132" type="bus_bus" depart="2236.29" departLane="best" departSpeed="max" from="-5955850#2" to="634644489"/>
    <trip id="bus133" type="bus_bus" depart="2253.23" departLane="best" from="641705063#3" to="5955850#2"/>
    <trip id="bus134" type="bus_bus" depart="2270.17" departLane="best" departSpeed="max" from="-5955850#2" to="-89927838#0"/>
    <trip id="bus135" type="bus_bus" depart="2287.12" departLane="best" departSpeed="max" from="-5955850#2" to="-419814433#0"/>
    <trip id="bus136" type="bus_bus" depart="2304.06" departLane="best" departSpeed="max" from="-5955850#2" to="641705064#1"/>
    <trip id="bus138" type="bus_bus" depart="2337.94" departLane="best" from="-593766960" to="5955850#2"/>
    <trip id="bus139" type="bus_bus" depart="2354.88" departLane="best" from="641705064#0" to="5955850#2"/>
    <trip id="bus140" type="bus_bus" depart="2371.82" departLane="best" departSpeed="max" from="89922370#0" to="-419814433#0"/>
    <trip id="bus141" type="bus_bus" depart="2388.77" departLane="best" departSpeed="max" from="89922370#0" to="6024091#5"/>
    <trip id="bus142" type="bus_bus" depart="2405.71" departLane="best" departSpeed="max" from="89922370#0" to="436291016#10"/>
    <trip id="bus143" type="bus_bus" depart="2422.65" departLane="best" departSpeed="max" from="-5955850#2" to="-89927838#0"/>
    <trip id="bus144" type="bus_bus" depart="2439.59" departLane="best" departSpeed="max" from="419814433#0" to="5955850#2"/>
    <trip id="bus145" type="bus_bus" depart="2456.53" departLane="best" departSpeed="max" from="-5955850#2" to="5962129#2"/>
    <trip id="bus146" type="bus_bus" depart="2473.47" departLane="best" departSpeed="max" from="-5955850#2" to="5962129#4"/>
    <trip id="bus147" type="bus_bus" depart="2490.42" departLane="best" from="-593766965" to="5955850#2"/>
    <trip id="bus148" type="bus_bus" depart="2507.36" departLane="best" departSpeed="max" from="6024091#0" to="642751754#1"/>
    <trip id="bus149" type="bus_bus" depart="2524.30" departLane="best" departSpeed="max" from="6024091#0" to="436291029"/>
    <trip id="bus150" type="bus_bus" depart="2541.24" departLane="best" departSpeed="max" from="573865733#0" to="593766962#0"/>
    <trip id="bus151" type="bus_bus" depart="2558.18" departLane="best" from="-641705065" to="5955850#2"/>
    <trip id="bus152" type="bus_bus" depart="2575.12" departLane="best" from="641705063#3" to="5955850#2"/>
    <trip id="bus153" type="bus_bus" depart="2592.07" departLane="best" departSpeed="max" from="89922370#0" to="642361032"/>
    <trip id="bus154" type="bus_bus" depart="2609.01" departLane="best" from="573865733#1" to="5955850#2"/>
    <trip id="bus155" type="bus_bus" depart="2625.95" departLane="best" departSpeed="max" from="89922370#0" to="5955850#2"/>
    <trip id="bus156" type="bus_bus" depart="2642.89" departLane="best" departSpeed="max" from="-5955850#2" to="-419814433#0"/>
    <trip id="bus157" type="bus_bus" depart="2659.83" departLane="best" from="5955850#0" to="5955850#2"/>
    <trip id="bus158" type="bus_bus" depart="2676.77" departLane="best" departSpeed="max" from="-593766962#1" to="5955850#2"/>
    <trip id="bus159" type="bus_bus" depart="2693.71" departLane="best" departSpeed="max" from="-5955850#2" to="36054466#10"/>
    <trip id="bus160" type="bus_bus" depart="2710.66" departLane="best" from="-5962129#5" to="5955850#2"/>
    <trip id="bus161" type="bus_bus" depart="2727.60" departLane="best" departSpeed="max" from="436291021#0" to="641705146#2"/>
    <trip id="bus162" type="bus_bus" depart="2744.54" departLane="best" departSpeed="max" from="-593766962#1" to="641705146#2"/>
    <trip id="bus163" type="bus_bus" depart="2761.48" departLane="best" departSpeed="max" from="-5955850#2" to="234953562"/>
    <trip id="bus164" type="bus_bus" depart="2778.42" departLane="best" from="-641705065" to="5955850#2"/>
    <trip id="bus165" type="bus_bus" depart="2795.36" departLane="best" departSpeed="max" from="-5955850#2" to="436291016#1"/>
    <trip id="bus166" type="bus_bus" depart="2812.31" departLane="best" departSpeed="max" from="-5955850#2" to="-5962129#0"/>
    <trip id="bus167" type="bus_bus" depart="2829.25" departLane="best" from="-89927838#3" to="5955850#2"/>
    <trip id="bus168" type="bus_bus" depart="2846.19" departLane="best" departSpeed="max" from="89922370#0" to="419814433#1"/>
    <trip id="bus169" type="bus_bus" depart="2863.13" departLane="best" departSpeed="max" from="-593766962#1" to="641705146#2"/>
    <trip id="bus170" type="bus_bus" depart="2880.07" departLane="best" from="641705063#3" to="5955850#2"/>
    <trip id="bus171" type="bus_bus" depart="2897.01" departLane="best" departSpeed="max" from="89922370#0" to="-5962129#1"/>
    <trip id="bus172" type="bus_bus" depart="2913.96" departLane="best" from="5962129#5" to="5955850#2"/>
    <trip id="bus173" type="bus_bus" depart="2930.90" departLane="best" departSpeed="max" from="436291021#0" to="5955850#2"/>
    <trip id="bus174" type="bus_bus" depart="2947.84" departLane="best" departSpeed="max" from="436291021#0" to="5955850#2"/>
    <trip id="bus175" type="bus_bus" depart="2964.78" departLane="best" departSpeed="max" from="-5955850#2" to="5962129#0"/>
    <trip id="bus176" type="bus_bus" depart="2981.72" departLane="best" departSpeed="max" from="89922370#0" to="436291016#10"/>
    <trip id="bus177" type="bus_bus" depart="2998.66" departLane="best" departSpeed="max" from="-5955850#2" to="436291020#0"/>
    <trip id="bus178" type="bus_bus" depart="3015.61" departLane="best" departSpeed="max" from="89922370#0" to="641705146#0"/>
    <trip id="bus179" type="bus_bus" depart="3032.55" departLane="best" departSpeed="max" from="-5955850#2" to="436291016#10"/>
    <trip id="bus180" type="bus_bus" depart="3049.49" departLane="best" from="436291016#3" to="5955850#2"/>
    <trip id="bus181" type="bus_bus" depart="3066.43" departLane="best" departSpeed="max" from="-5955850#2" to="436291010"/>
    <trip id="bus183" type="bus_bus" depart="3100.31" departLane="best" departSpeed="max" from="6024091#0" to="641705146#2"/>
    <trip id="bus184" type="bus_bus" depart="3117.25" departLane="best" from="-5962129#4" to="5955850#2"/>
    <trip id="bus186" type="bus_bus" depart="3151.14" departLane="best" departSpeed="max" from="6024091#0" to="-89927838#0"/>
    <trip id="bus187" type="bus_bus" depart="3168.08" departLane="best" departSpeed="max" from="89927838#0" to="5955850#2"/>
    <trip id="bus188" type="bus_bus" depart="3185.02" departLane="best" departSpeed="max" from="89922370#0" to="436291016#10"/>
    <trip id="bus189" type="bus_bus" depart="3201.96" departLane="best" departSpeed="max" from="89922370#0" to="641705064#1"/>
    <trip id="bus190" type="bus_bus" depart="3218.90" departLane="best" from="436291031" to="5955850#2"/>
    <trip id="bus191" type="bus_bus" depart="3235.85" departLane="best" departSpeed="max" from="573865733#0" to="5955850#2"/>
    <trip id="bus192" type="bus_bus" depart="3252.79" departLane="best" departSpeed="max" from="-5955850#2" to="641705063#0"/>
    <trip id="bus193" type="bus_bus" depart="3269.73" departLane="best" departSpeed="max" from="-5955850#2" to="436291016#10"/>
    <trip id="bus194" type="bus_bus" depart="3286.67" departLane="best" departSpeed="max" from="-5955850#2" to="-419814433#0"/>
    <trip id="bus195" type="bus_bus" depart="3303.61" departLane="best" departSpeed="max" from="-5955850#2" to="593766965"/>
    <trip id="bus196" type="bus_bus" depart="3320.55" departLane="best" departSpeed="max" from="-5955850#2" to="5962129#3"/>
    <trip id="bus197" type="bus_bus" depart="3337.50" departLane="best" departSpeed="max" from="419814433#0" to="5955850#2"/>
    <trip id="bus198" type="bus_bus" depart="3354.44" departLane="best" departSpeed="max" from="-5955850#2" to="-89927838#0"/>
    <trip id="bus199" type="bus_bus" depart="3371.38" departLane="best" departSpeed="max" from="-5955850#2" to="36054466#1"/>
    <trip id="bus200" type="bus_bus" depart="3388.32" departLane="best" departSpeed="max" from="-5955850#2" to="234953562"/>
    <trip id="bus201" type="bus_bus" depart="3405.26" departLane="best" departSpeed="max" from="-5955850#2" to="436291018"/>
    <trip id="bus202" type="bus_bus" depart="3422.20" departLane="best" departSpeed="max" from="-5955850#2" to="593766962#0"/>
    <trip id="bus203" type="bus_bus" depart="3439.15" departLane="best" from="-641705065" to="5955850#2"/>
    <trip id="bus204" type="bus_bus" depart="3456.09" departLane="best" departSpeed="max" from="-5955850#2" to="-419814433#0"/>
    <trip id="bus205" type="bus_bus" depart="3473.03" departLane="best" from="36054466#6" to="5955850#2"/>
    <trip id="bus206" type="bus_bus" depart="3489.97" departLane="best" from="419814433#1" to="5955850#2"/>
    <trip id="bus207" type="bus_bus" depart="3506.91" departLane="best" departSpeed="max" from="6024091#0" to="641705146#2"/>
    <trip id="bus209" type="bus_bus" depart="3540.80" departLane="best" from="436291064#0" to="5955850#2"/>
    <trip id="bus210" type="bus_bus" depart="3557.74" departLane="best" departSpeed="max" from="6024091#0" to="-89927838#0"/>
    <trip id="bus211" type="bus_bus" depart="3574.68" departLane="best" departSpeed="max" from="89922370#0" to="436291016#4"/>
    <trip id="bus212" type="bus_bus" depart="3591.62" departLane="best" departSpeed="max" from="89922370#0" to="641705064#1"/>
</routes>
