<?xml version="1.0" encoding="UTF-8"?>
<!-- generated on 2019-08-07 14:01:30.952291 by $Id$
  options: -n osm.net.xml <doubleminus>seed 42 <doubleminus>fringe-factor 1 -p 3.117738 -o osm.pedestrian.trips.xml -e 3600 -r osm.pedestrian.rou.xml <doubleminus>vehicle-class pedestrian <doubleminus>pedestrians <doubleminus>prefix ped <doubleminus>max-distance 2000
-->
<routes xmlns:xsi="http://www.w3.org/2001/XMLSchema-instance" xsi:noNamespaceSchemaLocation="http://sumo.dlr.de/xsd/routes_file.xsd">
    <vType id="ped_pedestrian" vClass="pedestrian"/>
    <person id="ped0" depart="0.00" type="ped_pedestrian">
        <walk from="578934713#1" to="-184711452"/>
    </person>
    <person id="ped1" depart="3.12" type="ped_pedestrian">
        <walk from="-593766965" to="-578942367#2"/>
    </person>
    <person id="ped2" depart="6.24" type="ped_pedestrian">
        <walk from="578942356" to="578934719"/>
    </person>
    <person id="ped3" depart="9.35" type="ped_pedestrian">
        <walk from="5962129#4" to="-578934692"/>
    </person>
    <person id="ped4" depart="12.47" type="ped_pedestrian">
        <walk from="36054466#8" to="-184711458"/>
    </person>
    <person id="ped5" depart="15.59" type="ped_pedestrian">
        <walk from="-578942367#1" to="436291020#0"/>
    </person>
    <person id="ped6" depart="18.71" type="ped_pedestrian">
        <walk from="-184711458" to="-578942357"/>
    </person>
    <person id="ped7" depart="21.82" type="ped_pedestrian">
        <walk from="578934716" to="573865733#1"/>
    </person>
    <person id="ped8" depart="24.94" type="ped_pedestrian">
        <walk from="-578942367#2" to="578934698"/>
    </person>
    <person id="ped9" depart="28.06" type="ped_pedestrian">
        <walk from="578942370" to="-184708333"/>
    </person>
    <person id="ped10" depart="31.18" type="ped_pedestrian">
        <walk from="578942369#1" to="578934729"/>
    </person>
    <person id="ped11" depart="34.30" type="ped_pedestrian">
        <walk from="184708332" to="-578934718#2"/>
    </person>
    <person id="ped12" depart="37.41" type="ped_pedestrian">
        <walk from="641705146#2" to="184708331"/>
    </person>
    <person id="ped13" depart="40.53" type="ped_pedestrian">
        <walk from="-578934698" to="-578934699"/>
    </person>
    <person id="ped14" depart="43.65" type="ped_pedestrian">
        <walk from="593766961" to="578934701"/>
    </person>
    <person id="ped15" depart="46.77" type="ped_pedestrian">
        <walk from="578942370" to="578942354#1"/>
    </person>
    <person id="ped16" depart="49.88" type="ped_pedestrian">
        <walk from="436291064#1" to="642337374#1"/>
    </person>
    <person id="ped17" depart="53.00" type="ped_pedestrian">
        <walk from="234953562" to="578605861#0"/>
    </person>
    <person id="ped18" depart="56.12" type="ped_pedestrian">
        <walk from="578942372#2" to="578934709#0"/>
    </person>
    <person id="ped19" depart="59.24" type="ped_pedestrian">
        <walk from="593766964" to="578934691#0"/>
    </person>
    <person id="ped20" depart="62.35" type="ped_pedestrian">
        <walk from="578934730" to="-419814433#2"/>
    </person>
    <person id="ped21" depart="65.47" type="ped_pedestrian">
        <walk from="-578942371#0" to="-5962129#0"/>
    </person>
    <person id="ped22" depart="68.59" type="ped_pedestrian">
        <walk from="-578934691#0" to="-578942371#1"/>
    </person>
    <person id="ped23" depart="71.71" type="ped_pedestrian">
        <walk from="-578934700#1" to="-5955850#0"/>
    </person>
    <person id="ped24" depart="74.83" type="ped_pedestrian">
        <walk from="578934713#0" to="184708337#2"/>
    </person>
    <person id="ped25" depart="77.94" type="ped_pedestrian">
        <walk from="184708338" to="-578942365"/>
    </person>
    <person id="ped26" depart="81.06" type="ped_pedestrian">
        <walk from="-593766963" to="641705064#0"/>
    </person>
    <person id="ped27" depart="84.18" type="ped_pedestrian">
        <walk from="578934715" to="578934703"/>
    </person>
    <person id="ped28" depart="87.30" type="ped_pedestrian">
        <walk from="-578934726" to="578942354#1"/>
    </person>
    <person id="ped29" depart="90.41" type="ped_pedestrian">
        <walk from="-578934719" to="234953562"/>
    </person>
    <person id="ped30" depart="93.53" type="ped_pedestrian">
        <walk from="89922370#5" to="578934713#1"/>
    </person>
    <person id="ped31" depart="96.65" type="ped_pedestrian">
        <walk from="578605861#2" to="578934723"/>
    </person>
    <person id="ped32" depart="99.77" type="ped_pedestrian">
        <walk from="593754410" to="578942364"/>
    </person>
    <person id="ped33" depart="102.89" type="ped_pedestrian">
        <walk from="-578942371#0" to="-184711460"/>
    </person>
    <person id="ped34" depart="106.00" type="ped_pedestrian">
        <walk from="-89927838#0" to="-593766963"/>
    </person>
    <person id="ped35" depart="109.12" type="ped_pedestrian">
        <walk from="-578942365" to="641705064#1"/>
    </person>
    <person id="ped36" depart="112.24" type="ped_pedestrian">
        <walk from="5955850#2" to="-89927838#0"/>
    </person>
    <person id="ped37" depart="115.36" type="ped_pedestrian">
        <walk from="578934717#0" to="36054466#10"/>
    </person>
    <person id="ped38" depart="118.47" type="ped_pedestrian">
        <walk from="623099335" to="436291016#0"/>
    </person>
    <person id="ped39" depart="121.59" type="ped_pedestrian">
        <walk from="-593766962#1" to="-578942372#2"/>
    </person>
    <person id="ped40" depart="124.71" type="ped_pedestrian">
        <walk from="578605862#0" to="-593766962#1"/>
    </person>
    <person id="ped41" depart="127.83" type="ped_pedestrian">
        <walk from="578934692" to="5962129#5"/>
    </person>
    <person id="ped42" depart="130.94" type="ped_pedestrian">
        <walk from="36054466#2" to="-578942367#1"/>
    </person>
    <person id="ped43" depart="134.06" type="ped_pedestrian">
        <walk from="89927838#3" to="436291020#1"/>
    </person>
    <person id="ped44" depart="137.18" type="ped_pedestrian">
        <walk from="-578934698" to="-419814433#2"/>
    </person>
    <person id="ped45" depart="140.30" type="ped_pedestrian">
        <walk from="-578934704" to="578934711"/>
    </person>
    <person id="ped46" depart="143.42" type="ped_pedestrian">
        <walk from="578942368#0" to="36054466#8"/>
    </person>
    <person id="ped47" depart="146.53" type="ped_pedestrian">
        <walk from="-578605862#0" to="278328405#0"/>
    </person>
    <person id="ped48" depart="149.65" type="ped_pedestrian">
        <walk from="89927838#0" to="436291062"/>
    </person>
    <person id="ped49" depart="152.77" type="ped_pedestrian">
        <walk from="642337374#1" to="593766964"/>
    </person>
    <person id="ped50" depart="155.89" type="ped_pedestrian">
        <walk from="-184708337#1" to="578942335"/>
    </person>
    <person id="ped51" depart="159.00" type="ped_pedestrian">
        <walk from="578934722" to="436291064#1"/>
    </person>
    <person id="ped52" depart="162.12" type="ped_pedestrian">
        <walk from="-593766963" to="578934713#1"/>
    </person>
    <person id="ped53" depart="165.24" type="ped_pedestrian">
        <walk from="-578934704" to="419814433#1"/>
    </person>
    <person id="ped54" depart="168.36" type="ped_pedestrian">
        <walk from="436291013" to="641705146#1"/>
    </person>
    <person id="ped55" depart="171.48" type="ped_pedestrian">
        <walk from="5955850#2" to="-593766962#1"/>
    </person>
    <person id="ped56" depart="174.59" type="ped_pedestrian">
        <walk from="436291019" to="-578942331"/>
    </person>
    <person id="ped57" depart="177.71" type="ped_pedestrian">
        <walk from="6024091#5" to="5955850#1"/>
    </person>
    <person id="ped58" depart="180.83" type="ped_pedestrian">
        <walk from="-5962129#2" to="578934713#1"/>
    </person>
    <person id="ped59" depart="183.95" type="ped_pedestrian">
        <walk from="578934703" to="-578934718#1"/>
    </person>
    <person id="ped60" depart="187.06" type="ped_pedestrian">
        <walk from="578942361#2" to="459317052"/>
    </person>
    <person id="ped61" depart="190.18" type="ped_pedestrian">
        <walk from="578942365" to="436291064#0"/>
    </person>
    <person id="ped62" depart="193.30" type="ped_pedestrian">
        <walk from="-184708331" to="132579327"/>
    </person>
    <person id="ped63" depart="196.42" type="ped_pedestrian">
        <walk from="-184708337#3" to="641705063#1"/>
    </person>
    <person id="ped64" depart="199.54" type="ped_pedestrian">
        <walk from="5962129#0" to="578942372#2"/>
    </person>
    <person id="ped65" depart="202.65" type="ped_pedestrian">
        <walk from="-5962129#5" to="-578605861#1"/>
    </person>
    <person id="ped66" depart="205.77" type="ped_pedestrian">
        <walk from="5962129#0" to="641705065"/>
    </person>
    <person id="ped67" depart="208.89" type="ped_pedestrian">
        <walk from="-578934691#1" to="436291016#7"/>
    </person>
    <person id="ped68" depart="212.01" type="ped_pedestrian">
        <walk from="-578605862#2" to="578942361#1"/>
    </person>
    <person id="ped69" depart="215.12" type="ped_pedestrian">
        <walk from="578942362" to="-578934712"/>
    </person>
    <person id="ped70" depart="218.24" type="ped_pedestrian">
        <walk from="436291016#4" to="578605861#0"/>
    </person>
    <person id="ped71" depart="221.36" type="ped_pedestrian">
        <walk from="-593766963" to="5955850#1"/>
    </person>
    <person id="ped72" depart="224.48" type="ped_pedestrian">
        <walk from="36054466#8" to="-578942365"/>
    </person>
    <person id="ped73" depart="227.59" type="ped_pedestrian">
        <walk from="459317052" to="578942354#1"/>
    </person>
    <person id="ped74" depart="230.71" type="ped_pedestrian">
        <walk from="-578942357" to="-641705065"/>
    </person>
    <person id="ped75" depart="233.83" type="ped_pedestrian">
        <walk from="89927838#0" to="578934716"/>
    </person>
    <person id="ped76" depart="236.95" type="ped_pedestrian">
        <walk from="419814433#2" to="436291021#0"/>
    </person>
    <person id="ped77" depart="240.07" type="ped_pedestrian">
        <walk from="-578934710" to="-578942370"/>
    </person>
    <person id="ped78" depart="243.18" type="ped_pedestrian">
        <walk from="184708331" to="578934698"/>
    </person>
    <person id="ped79" depart="246.30" type="ped_pedestrian">
        <walk from="-578942371#0" to="-578942367#2"/>
    </person>
    <person id="ped80" depart="249.42" type="ped_pedestrian">
        <walk from="-578934689" to="578934712"/>
    </person>
    <person id="ped81" depart="252.54" type="ped_pedestrian">
        <walk from="-578942371#0" to="6024091#2"/>
    </person>
    <person id="ped82" depart="255.65" type="ped_pedestrian">
        <walk from="593766964" to="-578605862#2"/>
    </person>
    <person id="ped83" depart="258.77" type="ped_pedestrian">
        <walk from="-578942371#2" to="578934718#2"/>
    </person>
    <person id="ped84" depart="261.89" type="ped_pedestrian">
        <walk from="-578942367#0" to="-578934714"/>
    </person>
    <person id="ped85" depart="265.01" type="ped_pedestrian">
        <walk from="641705063#3" to="578934690"/>
    </person>
    <person id="ped86" depart="268.13" type="ped_pedestrian">
        <walk from="436291016#3" to="578942367#1"/>
    </person>
    <person id="ped87" depart="271.24" type="ped_pedestrian">
        <walk from="578942370" to="-578942355"/>
    </person>
    <person id="ped88" depart="274.36" type="ped_pedestrian">
        <walk from="-578934699" to="419814433#0"/>
    </person>
    <person id="ped89" depart="277.48" type="ped_pedestrian">
        <walk from="36054466#8" to="436291016#2"/>
    </person>
    <person id="ped90" depart="280.60" type="ped_pedestrian">
        <walk from="578942354#1" to="578934718#3"/>
    </person>
    <person id="ped91" depart="283.71" type="ped_pedestrian">
        <walk from="642751754#1" to="-578934700#0"/>
    </person>
    <person id="ped92" depart="286.83" type="ped_pedestrian">
        <walk from="36054466#2" to="184708331"/>
    </person>
    <person id="ped93" depart="289.95" type="ped_pedestrian">
        <walk from="593766964" to="-578942372#2"/>
    </person>
    <person id="ped94" depart="293.07" type="ped_pedestrian">
        <walk from="-578942344" to="436291011"/>
    </person>
    <person id="ped95" depart="296.19" type="ped_pedestrian">
        <walk from="36054466#8" to="-5955850#0"/>
    </person>
    <person id="ped96" depart="299.30" type="ped_pedestrian">
        <walk from="-578942372#2" to="641705063#0"/>
    </person>
    <person id="ped97" depart="302.42" type="ped_pedestrian">
        <walk from="419814433#4" to="593766964"/>
    </person>
    <person id="ped98" depart="305.54" type="ped_pedestrian">
        <walk from="578605861#0" to="-419814433#4"/>
    </person>
    <person id="ped99" depart="308.66" type="ped_pedestrian">
        <walk from="89927838#3" to="578942375"/>
    </person>
    <person id="ped100" depart="311.77" type="ped_pedestrian">
        <walk from="642337374#0" to="641705063#1"/>
    </person>
    <person id="ped101" depart="314.89" type="ped_pedestrian">
        <walk from="593766961" to="-578934723"/>
    </person>
    <person id="ped102" depart="318.01" type="ped_pedestrian">
        <walk from="436291016#7" to="-578942367#0"/>
    </person>
    <person id="ped103" depart="321.13" type="ped_pedestrian">
        <walk from="36054466#2" to="-578605861#1"/>
    </person>
    <person id="ped104" depart="324.24" type="ped_pedestrian">
        <walk from="234953562" to="89922370#0"/>
    </person>
    <person id="ped105" depart="327.36" type="ped_pedestrian">
        <walk from="-593766963" to="578942367#1"/>
    </person>
    <person id="ped106" depart="330.48" type="ped_pedestrian">
        <walk from="436291013" to="36054466#8"/>
    </person>
    <person id="ped107" depart="333.60" type="ped_pedestrian">
        <walk from="641705146#2" to="89927838#0"/>
    </person>
    <person id="ped108" depart="336.72" type="ped_pedestrian">
        <walk from="578605861#1" to="578942334"/>
    </person>
    <person id="ped109" depart="339.83" type="ped_pedestrian">
        <walk from="-578934718#2" to="-5962129#2"/>
    </person>
    <person id="ped110" depart="342.95" type="ped_pedestrian">
        <walk from="642337374#0" to="578934691#1"/>
    </person>
    <person id="ped111" depart="346.07" type="ped_pedestrian">
        <walk from="573865733#0" to="578942360#0"/>
    </person>
    <person id="ped112" depart="349.19" type="ped_pedestrian">
        <walk from="-578605861#1" to="578934692"/>
    </person>
    <person id="ped113" depart="352.30" type="ped_pedestrian">
        <walk from="436291019" to="593766962#0"/>
    </person>
    <person id="ped114" depart="355.42" type="ped_pedestrian">
        <walk from="-578934718#3" to="642337372"/>
    </person>
    <person id="ped115" depart="358.54" type="ped_pedestrian">
        <walk from="-578934691#0" to="-578942334"/>
    </person>
    <person id="ped116" depart="361.66" type="ped_pedestrian">
        <walk from="578934700#0" to="578934718#3"/>
    </person>
    <person id="ped117" depart="364.78" type="ped_pedestrian">
        <walk from="-578942371#2" to="-578934710"/>
    </person>
    <person id="ped118" depart="367.89" type="ped_pedestrian">
        <walk from="5962129#3" to="-578942372#1"/>
    </person>
    <person id="ped119" depart="371.01" type="ped_pedestrian">
        <walk from="578934700#0" to="578934709#0"/>
    </person>
    <person id="ped120" depart="374.13" type="ped_pedestrian">
        <walk from="36054466#7" to="578934692"/>
    </person>
    <person id="ped121" depart="377.25" type="ped_pedestrian">
        <walk from="436291031" to="641705063#3"/>
    </person>
    <person id="ped122" depart="380.36" type="ped_pedestrian">
        <walk from="-578942358" to="578942333"/>
    </person>
    <person id="ped123" depart="383.48" type="ped_pedestrian">
        <walk from="-578942371#2" to="36054466#10"/>
    </person>
    <person id="ped124" depart="386.60" type="ped_pedestrian">
        <walk from="578934718#3" to="-5962129#3"/>
    </person>
    <person id="ped125" depart="389.72" type="ped_pedestrian">
        <walk from="-89927838#0" to="578942360#1"/>
    </person>
    <person id="ped126" depart="392.83" type="ped_pedestrian">
        <walk from="-578934689" to="436291016#0"/>
    </person>
    <person id="ped127" depart="395.95" type="ped_pedestrian">
        <walk from="89927838#3" to="89927838#0"/>
    </person>
    <person id="ped128" depart="399.07" type="ped_pedestrian">
        <walk from="-578934689" to="-578942367#0"/>
    </person>
    <person id="ped129" depart="402.19" type="ped_pedestrian">
        <walk from="-593766963" to="641705063#3"/>
    </person>
    <person id="ped130" depart="405.31" type="ped_pedestrian">
        <walk from="5962129#1" to="5962129#0"/>
    </person>
    <person id="ped131" depart="408.42" type="ped_pedestrian">
        <walk from="184708338" to="-578934718#3"/>
    </person>
    <person id="ped132" depart="411.54" type="ped_pedestrian">
        <walk from="578942374" to="578934730"/>
    </person>
    <person id="ped133" depart="414.66" type="ped_pedestrian">
        <walk from="578934703" to="89922370#0"/>
    </person>
    <person id="ped134" depart="417.78" type="ped_pedestrian">
        <walk from="578934717#0" to="-184708337#0"/>
    </person>
    <person id="ped135" depart="420.89" type="ped_pedestrian">
        <walk from="578942371#1" to="-5962129#3"/>
    </person>
    <person id="ped136" depart="424.01" type="ped_pedestrian">
        <walk from="578934718#0" to="641705064#0"/>
    </person>
    <person id="ped137" depart="427.13" type="ped_pedestrian">
        <walk from="-578934714" to="-578934709#0"/>
    </person>
    <person id="ped138" depart="430.25" type="ped_pedestrian">
        <walk from="-578934703" to="578605861#1"/>
    </person>
    <person id="ped139" depart="433.37" type="ped_pedestrian">
        <walk from="-593766964" to="578934702"/>
    </person>
    <person id="ped140" depart="436.48" type="ped_pedestrian">
        <walk from="578942334" to="-578942358"/>
    </person>
    <person id="ped141" depart="439.60" type="ped_pedestrian">
        <walk from="578934712" to="-593766962#1"/>
    </person>
    <person id="ped142" depart="442.72" type="ped_pedestrian">
        <walk from="436291016#7" to="6024091#2"/>
    </person>
    <person id="ped143" depart="445.84" type="ped_pedestrian">
        <walk from="593766960" to="-578934698"/>
    </person>
    <person id="ped144" depart="448.95" type="ped_pedestrian">
        <walk from="36054466#8" to="-5955850#0"/>
    </person>
    <person id="ped145" depart="452.07" type="ped_pedestrian">
        <walk from="-184708331" to="578942363"/>
    </person>
    <person id="ped146" depart="455.19" type="ped_pedestrian">
        <walk from="578934713#0" to="-593766962#1"/>
    </person>
    <person id="ped147" depart="458.31" type="ped_pedestrian">
        <walk from="578942357" to="578605861#0"/>
    </person>
    <person id="ped148" depart="461.43" type="ped_pedestrian">
        <walk from="36054466#9" to="-184708337#0"/>
    </person>
    <person id="ped149" depart="464.54" type="ped_pedestrian">
        <walk from="-578934690" to="5962129#1"/>
    </person>
    <person id="ped150" depart="467.66" type="ped_pedestrian">
        <walk from="6024091#2" to="573865733#1"/>
    </person>
    <person id="ped151" depart="470.78" type="ped_pedestrian">
        <walk from="578942374" to="578934692"/>
    </person>
    <person id="ped152" depart="473.90" type="ped_pedestrian">
        <walk from="-578934718#0" to="-578934712"/>
    </person>
    <person id="ped153" depart="477.01" type="ped_pedestrian">
        <walk from="-5962129#5" to="5962129#5"/>
    </person>
    <person id="ped154" depart="480.13" type="ped_pedestrian">
        <walk from="578942368#1" to="593766964"/>
    </person>
    <person id="ped155" depart="483.25" type="ped_pedestrian">
        <walk from="5962129#5" to="-578942365"/>
    </person>
    <person id="ped156" depart="486.37" type="ped_pedestrian">
        <walk from="-578942372#2" to="-578934700#1"/>
    </person>
    <person id="ped157" depart="489.48" type="ped_pedestrian">
        <walk from="578942367#0" to="5962129#1"/>
    </person>
    <person id="ped158" depart="492.60" type="ped_pedestrian">
        <walk from="36054466#3" to="578934709#1"/>
    </person>
    <person id="ped159" depart="495.72" type="ped_pedestrian">
        <walk from="-578934718#2" to="641705063#2"/>
    </person>
    <person id="ped160" depart="498.84" type="ped_pedestrian">
        <walk from="593766965" to="642361032"/>
    </person>
    <person id="ped161" depart="501.96" type="ped_pedestrian">
        <walk from="578942371#0" to="5962129#1"/>
    </person>
    <person id="ped162" depart="505.07" type="ped_pedestrian">
        <walk from="-184711452" to="578942356"/>
    </person>
    <person id="ped163" depart="508.19" type="ped_pedestrian">
        <walk from="184708330" to="641705063#2"/>
    </person>
    <person id="ped164" depart="511.31" type="ped_pedestrian">
        <walk from="578942369#0" to="593766965"/>
    </person>
    <person id="ped165" depart="514.43" type="ped_pedestrian">
        <walk from="578942371#0" to="-593766963"/>
    </person>
    <person id="ped166" depart="517.54" type="ped_pedestrian">
        <walk from="578942367#2" to="-578934703"/>
    </person>
    <person id="ped167" depart="520.66" type="ped_pedestrian">
        <walk from="5955850#1" to="593766964"/>
    </person>
    <person id="ped168" depart="523.78" type="ped_pedestrian">
        <walk from="-578942367#2" to="578942371#1"/>
    </person>
    <person id="ped169" depart="526.90" type="ped_pedestrian">
        <walk from="436291016#1" to="-5962129#4"/>
    </person>
    <person id="ped170" depart="530.02" type="ped_pedestrian">
        <walk from="578942368#1" to="-578942370"/>
    </person>
    <person id="ped171" depart="533.13" type="ped_pedestrian">
        <walk from="-184711452" to="-578942355"/>
    </person>
    <person id="ped172" depart="536.25" type="ped_pedestrian">
        <walk from="132579346#0" to="593766965"/>
    </person>
    <person id="ped173" depart="539.37" type="ped_pedestrian">
        <walk from="642337374#0" to="-5955850#0"/>
    </person>
    <person id="ped174" depart="542.49" type="ped_pedestrian">
        <walk from="578934713#1" to="36054466#2"/>
    </person>
    <person id="ped175" depart="545.60" type="ped_pedestrian">
        <walk from="642751754#0" to="436291064#1"/>
    </person>
    <person id="ped176" depart="548.72" type="ped_pedestrian">
        <walk from="641705064#0" to="-578934709#0"/>
    </person>
    <person id="ped177" depart="551.84" type="ped_pedestrian">
        <walk from="642337374#1" to="-578942331"/>
    </person>
    <person id="ped178" depart="554.96" type="ped_pedestrian">
        <walk from="642337372" to="-593766963"/>
    </person>
    <person id="ped179" depart="558.08" type="ped_pedestrian">
        <walk from="-578934704" to="419814433#1"/>
    </person>
    <person id="ped180" depart="561.19" type="ped_pedestrian">
        <walk from="578942354#1" to="-89927838#0"/>
    </person>
    <person id="ped181" depart="564.31" type="ped_pedestrian">
        <walk from="578934702" to="436291020#2"/>
    </person>
    <person id="ped182" depart="567.43" type="ped_pedestrian">
        <walk from="278328405#1" to="578934691#0"/>
    </person>
    <person id="ped183" depart="570.55" type="ped_pedestrian">
        <walk from="-593754410" to="578934732"/>
    </person>
    <person id="ped184" depart="573.66" type="ped_pedestrian">
        <walk from="-184708331" to="641705063#1"/>
    </person>
    <person id="ped185" depart="576.78" type="ped_pedestrian">
        <walk from="459317052" to="578942334"/>
    </person>
    <person id="ped186" depart="579.90" type="ped_pedestrian">
        <walk from="578942357" to="578934718#2"/>
    </person>
    <person id="ped187" depart="583.02" type="ped_pedestrian">
        <walk from="184708337#2" to="-578605862#2"/>
    </person>
    <person id="ped188" depart="586.13" type="ped_pedestrian">
        <walk from="578934718#1" to="132579346#1"/>
    </person>
    <person id="ped189" depart="589.25" type="ped_pedestrian">
        <walk from="-89927838#0" to="593766961"/>
    </person>
    <person id="ped190" depart="592.37" type="ped_pedestrian">
        <walk from="578942334" to="-5962129#3"/>
    </person>
    <person id="ped191" depart="595.49" type="ped_pedestrian">
        <walk from="-5962129#5" to="36054466#4"/>
    </person>
    <person id="ped192" depart="598.61" type="ped_pedestrian">
        <walk from="36054466#2" to="-5962129#2"/>
    </person>
    <person id="ped193" depart="601.72" type="ped_pedestrian">
        <walk from="-578934712" to="36054466#7"/>
    </person>
    <person id="ped194" depart="604.84" type="ped_pedestrian">
        <walk from="641705064#1" to="578934719"/>
    </person>
    <person id="ped195" depart="607.96" type="ped_pedestrian">
        <walk from="6024091#0" to="578934704"/>
    </person>
    <person id="ped196" depart="611.08" type="ped_pedestrian">
        <walk from="-5962129#3" to="573865733#1"/>
    </person>
    <person id="ped197" depart="614.19" type="ped_pedestrian">
        <walk from="-184708331" to="-5955850#2"/>
    </person>
    <person id="ped198" depart="617.31" type="ped_pedestrian">
        <walk from="419814433#0" to="578934691#1"/>
    </person>
    <person id="ped199" depart="620.43" type="ped_pedestrian">
        <walk from="578934717#0" to="436291016#10"/>
    </person>
    <person id="ped200" depart="623.55" type="ped_pedestrian">
        <walk from="419814433#4" to="-578942367#0"/>
    </person>
    <person id="ped201" depart="626.67" type="ped_pedestrian">
        <walk from="436291016#3" to="6024091#0"/>
    </person>
    <person id="ped202" depart="629.78" type="ped_pedestrian">
        <walk from="578942368#1" to="-578934726"/>
    </person>
    <person id="ped203" depart="632.90" type="ped_pedestrian">
        <walk from="-578934691#1" to="436291021#0"/>
    </person>
    <person id="ped204" depart="636.02" type="ped_pedestrian">
        <walk from="578934712" to="184708330"/>
    </person>
    <person id="ped205" depart="639.14" type="ped_pedestrian">
        <walk from="578942371#2" to="578942360#1"/>
    </person>
    <person id="ped206" depart="642.25" type="ped_pedestrian">
        <walk from="578934718#3" to="-578942370"/>
    </person>
    <person id="ped207" depart="645.37" type="ped_pedestrian">
        <walk from="-578942357" to="-184711452"/>
    </person>
    <person id="ped208" depart="648.49" type="ped_pedestrian">
        <walk from="-578942372#1" to="436291016#4"/>
    </person>
    <person id="ped209" depart="651.61" type="ped_pedestrian">
        <walk from="593766961" to="-578934689"/>
    </person>
    <person id="ped210" depart="654.72" type="ped_pedestrian">
        <walk from="36054466#6" to="578934711"/>
    </person>
    <person id="ped211" depart="657.84" type="ped_pedestrian">
        <walk from="-578942356" to="578934726"/>
    </person>
    <person id="ped212" depart="660.96" type="ped_pedestrian">
        <walk from="436291016#9" to="-578942372#1"/>
    </person>
    <person id="ped213" depart="664.08" type="ped_pedestrian">
        <walk from="578934717#0" to="-184708333"/>
    </person>
    <person id="ped214" depart="667.20" type="ped_pedestrian">
        <walk from="578942360#1" to="578942363"/>
    </person>
    <person id="ped215" depart="670.31" type="ped_pedestrian">
        <walk from="-578934703" to="36054466#8"/>
    </person>
    <person id="ped216" depart="673.43" type="ped_pedestrian">
        <walk from="-578942331" to="641705146#2"/>
    </person>
    <person id="ped217" depart="676.55" type="ped_pedestrian">
        <walk from="436291021#0" to="-419814433#4"/>
    </person>
    <person id="ped218" depart="679.67" type="ped_pedestrian">
        <walk from="-578942372#2" to="593766961"/>
    </person>
    <person id="ped219" depart="682.78" type="ped_pedestrian">
        <walk from="436291016#0" to="578942369#0"/>
    </person>
    <person id="ped220" depart="685.90" type="ped_pedestrian">
        <walk from="578934718#1" to="89922370#0"/>
    </person>
    <person id="ped221" depart="689.02" type="ped_pedestrian">
        <walk from="578934700#0" to="641705146#0"/>
    </person>
    <person id="ped222" depart="692.14" type="ped_pedestrian">
        <walk from="5962129#3" to="578934704"/>
    </person>
    <person id="ped223" depart="695.26" type="ped_pedestrian">
        <walk from="578942334" to="436291020#0"/>
    </person>
    <person id="ped224" depart="698.37" type="ped_pedestrian">
        <walk from="578942372#2" to="573865733#1"/>
    </person>
    <person id="ped225" depart="701.49" type="ped_pedestrian">
        <walk from="5962129#5" to="578942358"/>
    </person>
    <person id="ped226" depart="704.61" type="ped_pedestrian">
        <walk from="436291016#4" to="-593766960"/>
    </person>
    <person id="ped227" depart="707.73" type="ped_pedestrian">
        <walk from="-578942372#2" to="578934713#0"/>
    </person>
    <person id="ped228" depart="710.84" type="ped_pedestrian">
        <walk from="578942362" to="436291029"/>
    </person>
    <person id="ped229" depart="713.96" type="ped_pedestrian">
        <walk from="578934710" to="-593766965"/>
    </person>
    <person id="ped230" depart="717.08" type="ped_pedestrian">
        <walk from="-578934690" to="-5955850#2"/>
    </person>
    <person id="ped231" depart="720.20" type="ped_pedestrian">