<?xml version="1.0" encoding="UTF-8"?>

<!-- generated on Wed Aug  7 14:01:32 2019 by Eclipse SUMO duarouter Version 1.2.0
<configuration xmlns:xsi="http://www.w3.org/2001/XMLSchema-instance" xsi:noNamespaceSchemaLocation="http://sumo.dlr.de/xsd/duarouterConfiguration.xsd">

    <input>
        <net-file value="osm.net.xml"/>
        <route-files value="osm.passenger.trips.xml"/>
    </input>

    <output>
        <output-file value="osm.passenger.trips.xml.tmp"/>
        <write-trips value="true"/>
    </output>

    <time>
        <begin value="0"/>
        <end value="3600.0"/>
    </time>

    <report>
        <no-warnings value="true"/>
        <ignore-errors value="true"/>
        <no-step-log value="true"/>
    </report>

</configuration>
-->

<routes xmlns:xsi="http://www.w3.org/2001/XMLSchema-instance" xsi:noNamespaceSchemaLocation="http://sumo.dlr.de/xsd/routes_file.xsd">
    <vType id="veh_passenger" vClass="passenger"/>
    <trip id="veh0" type="veh_passenger" depart="0.00" departLane="best" departSpeed="max" from="642337374#0" to="-5962129#2"/>
    <trip id="veh1" type="veh_passenger" depart="3.39" departLane="best" from="641705063#3" to="5955850#2"/>
    <trip id="veh2" type="veh_passenger" depart="6.78" departLane="best" from="436291016#2" to="278328405#1"/>
    <trip id="veh3" type="veh_passenger" depart="10.16" departLane="best" departSpeed="max" from="89922370#0" to="436291016#10"/>
    <trip id="veh4" type="veh_passenger" depart="13.55" departLane="best" departSpeed="max" from="-5955850#2" to="-5962129#4"/>
    <trip id="veh5" type="veh_passenger" depart="16.94" departLane="best" from="436291064#0" to="642751754#1"/>
    <trip id="veh7" type="veh_passenger" depart="23.72" departLane="best" departSpeed="max" from="6024091#0" to="-593766960"/>
    <trip id="veh9" type="veh_passenger" depart="30.49" departLane="best" departSpeed="max" from="-5955850#2" to="36054466#8"/>
    <trip id="veh10" type="veh_passenger" depart="33.88" departLane="best" departSpeed="max" from="-5955850#2" to="436291011"/>
    <trip id="veh12" type="veh_passenger" depart="40.66" departLane="best" departSpeed="max" from="89927838#0" to="593766962#0"/>
    <trip id="veh13" type="veh_passenger" depart="44.05" departLane="best" from="436291064#1" to="5955850#2"/>
    <trip id="veh15" type="veh_passenger" depart="50.82" departLane="best" departSpeed="max" from="642337374#0" to="436291016#10"/>
    <trip id="veh16" type="veh_passenger" depart="54.21" departLane="best" departSpeed="max" from="573865733#0" to="436291010"/>
    <trip id="veh17" type="veh_passenger" depart="57.60" departLane="best" departSpeed="max" from="-5955850#2" to="-593766963"/>
    <trip id="veh18" type="veh_passenger" depart="60.99" departLane="best" from="5962129#2" to="436291029"/>
    <trip id="veh19" type="veh_passenger" depart="64.38" departLane="best" from="419814433#4" to="593766962#0"/>
    <trip id="veh21" type="veh_passenger" depart="71.15" departLane="best" from="436291013" to="593766962#0"/>
    <trip id="veh22" type="veh_passenger" depart="74.54" departLane="best" departSpeed="max" from="573865733#0" to="278328405#0"/>
    <trip id="veh23" type="veh_passenger" depart="77.93" departLane="best" from="6024091#5" to="436291029"/>
    <trip id="veh24" type="veh_passenger" depart="81.32" departLane="best" from="-593766960" to="642361032"/>
    <trip id="veh25" type="veh_passenger" depart="84.71" departLane="best" from="436291013" to="-593766965"/>
    <trip id="veh26" type="veh_passenger" depart="88.10" departLane="best" departSpeed="max" from="642337374#0" to="642751754#0"/>
    <trip id="veh27" type="veh_passenger" depart="91.48" departLane="best" departSpeed="max" from="-5955850#2" to="436291020#1"/>
    <trip id="veh28" type="veh_passenger" depart="94.87" departLane="best" departSpeed="max" from="436291021#0" to="436291029"/>
    <trip id="veh29" type="veh_passenger" depart="98.26" departLane="best" from="419814433#4" to="641705146#2"/>
    <trip id="veh30" type="veh_passenger" depart="101.65" departLane="best" from="89927838#3" to="593766962#0"/>
    <trip id="veh31" type="veh_passenger" depart="105.04" departLane="best" from="-5955850#0" to="593766961"/>
    <trip id="veh32" type="veh_passenger" depart="108.43" departLane="best" departSpeed="max" from="419814433#0" to="642361032"/>
    <trip id="veh33" type="veh_passenger" depart="111.81" departLane="best" departSpeed="max" from="89922370#0" to="436291031"/>
    <trip id="veh34" type="veh_passenger" depart="115.20" departLane="best" departSpeed="max" from="-5955850#2" to="436291016#8"/>
    <trip id="veh35" type="veh_passenger" depart="118.59" departLane="best" departSpeed="max" from="6024091#0" to="593766965"/>
    <trip id="veh36" type="veh_passenger" depart="121.98" departLane="best" departSpeed="max" from="89927838#0" to="-5962129#4"/>
    <trip id="veh37" type="veh_passenger" depart="125.37" departLane="best" departSpeed="max" from="642337374#0" to="419814433#2"/>
    <trip id="veh38" type="veh_passenger" depart="128.76" departLane="best" departSpeed="max" from="419814433#0" to="642361032"/>
    <trip id="veh40" type="veh_passenger" depart="135.53" departLane="best" departSpeed="max" from="89927838#0" to="642361032"/>
    <trip id="veh43" type="veh_passenger" depart="145.70" departLane="best" departSpeed="max" from="89922370#0" to="89927838#3"/>
    <trip id="veh44" type="veh_passenger" depart="149.09" departLane="best" departSpeed="max" from="89927838#0" to="436291062"/>
    <trip id="veh45" type="veh_passenger" depart="152.47" departLane="best" departSpeed="max" from="436291021#0" to="641705146#2"/>
    <trip id="veh46" type="veh_passenger" depart="155.86" departLane="best" departSpeed="max" from="-5955850#2" to="36054466#10"/>
    <trip id="veh47" type="veh_passenger" depart="159.25" departLane="best" departSpeed="max" from="573865733#0" to="5955850#0"/>
    <trip id="veh48" type="veh_passenger" depart="162.64" departLane="best" departSpeed="max" from="419814433#0" to="-89927838#0"/>
    <trip id="veh49" type="veh_passenger" depart="166.03" departLane="best" departSpeed="max" from="642337374#0" to="419814433#2"/>
    <trip id="veh50" type="veh_passenger" depart="169.42" departLane="best" departSpeed="max" from="573865733#0" to="593766960"/>
    <trip id="veh51" type="veh_passenger" depart="172.80" departLane="best" from="-5955850#1" to="436291018"/>
    <trip id="veh52" type="veh_passenger" depart="176.19" departLane="best" from="-5955850#1" to="36054466#4"/>
    <trip id="veh56" type="veh_passenger" depart="189.75" departLane="best" from="-5962129#5" to="-89927838#0"/>
    <trip id="veh57" type="veh_passenger" depart="193.13" departLane="best" from="-5962129#0" to="436291029"/>
    <trip id="veh58" type="veh_passenger" depart="196.52" departLane="best" departSpeed="max" from="6024091#0" to="36054466#2"/>
    <trip id="veh59" type="veh_passenger" depart="199.91" departLane="best" departSpeed="max" from="436291021#0" to="642361032"/>
    <trip id="veh60" type="veh_passenger" depart="203.30" departLane="best" from="6024091#2" to="436291029"/>
    <trip id="veh61" type="veh_passenger" depart="206.69" departLane="best" from="642337374#1" to="436291029"/>
    <trip id="veh62" type="veh_passenger" depart="210.08" departLane="best" from="641705063#2" to="641705146#2"/>
    <trip id="veh63" type="veh_passenger" depart="213.46" departLane="best" departSpeed="max" from="642337374#0" to="36054466#4"/>
    <trip id="veh64" type="veh_passenger" depart="216.85" departLane="best" from="641705063#0" to="642337372"/>
    <trip id="veh66" type="veh_passenger" depart="223.63" departLane="best" departSpeed="max" from="642337374#0" to="642751754#1"/>
    <trip id="veh67" type="veh_passenger" depart="227.02" departLane="best" from="641705063#3" to="641705146#2"/>
    <trip id="veh68" type="veh_passenger" depart="230.41" departLane="best" from="436291016#1" to="641705146#2"/>
    <trip id="veh69" type="veh_passenger" depart="233.79" departLane="best" from="89922370#5" to="436291011"/>
    <trip id="veh70" type="veh_passenger" depart="237.18" departLane="best" departSpeed="max" from="89922370#0" to="-89927838#0"/>
    <trip id="veh71" type="veh_passenger" depart="240.57" departLane="best" departSpeed="max" from="89927838#0" to="36054466#10"/>
    <trip id="veh72" type="veh_passenger" depart="243.96" departLane="best" from="89922370#5" to="436291010"/>
    <trip id="veh73" type="veh_passenger" depart="247.35" departLane="best" departSpeed="max" from="573865733#0" to="436291029"/>
    <trip id="veh74" type="veh_passenger" depart="250.74" departLane="best" from="419814433#1" to="5955850#2"/>
    <trip id="veh75" type="veh_passenger" depart="254.12" departLane="best" from="6024091#2" to="593766965"/>
    <trip id="veh76" type="veh_passenger" depart="257.51" departLane="best" from="436291016#0" to="641705146#2"/>
    <trip id="veh77" type="veh_passenger" depart="260.90" departLane="best" departSpeed="max" from="6024091#0" to="436291016#0"/>
    <trip id="veh78" type="veh_passenger" depart="264.29" departLane="best" departSpeed="max" from="89922370#0" to="5955850#0"/>
    <trip id="veh79" type="veh_passenger" depart="267.68" departLane="best" from="436291013" to="436291029"/>
    <trip id="veh81" type="veh_passenger" depart="274.45" departLane="best" departSpeed="max" from="-5955850#2" to="436291029"/>
    <trip id="veh82" type="veh_passenger" depart="277.84" departLane="best" departSpeed="max" from="419814433#0" to="436291020#0"/>
    <trip id="veh84" type="veh_passenger" depart="284.62" departLane="best" from="36054466#4" to="5955850#2"/>
    <trip id="veh85" type="veh_passenger" depart="288.01" departLane="best" from="6024091#3" to="634644489"/>
    <trip id="veh86" type="veh_passenger" depart="291.40" departLane="best" departSpeed="max" from="419814433#0" to="641705146#2"/>
    <trip id="veh87" type="veh_passenger" depart="294.78" departLane="best" departSpeed="max" from="6024091#0" to="436291029"/>
    <trip id="veh89" type="veh_passenger" depart="301.56" departLane="best" departSpeed="max" from="436291021#0" to="436291010"/>
    <trip id="veh90" type="veh_passenger" depart="304.95" departLane="best" departSpeed="max" from="419814433#0" to="593766962#0"/>
    <trip id="veh92" type="veh_passenger" depart="311.73" departLane="best" departSpeed="max" from="419814433#0" to="5955850#2"/>
    <trip id="veh94" type="veh_passenger" depart="318.50" departLane="best" from="436291018" to="642361032"/>
    <trip id="veh95" type="veh_passenger" depart="321.89" departLane="best" departSpeed="max" from="573865733#0" to="5955850#2"/>
    <trip id="veh96" type="veh_passenger" depart="325.28" departLane="best" from="642337373" to="642751754#1"/>
    <trip id="veh97" type="veh_passenger" depart="328.67" departLane="best" from="436291018" to="6024091#2"/>
    <trip id="veh99" type="veh_passenger" depart="335.44" departLane="best" from="573865733#1" to="-419814433#1"/>
    <trip id="veh100" type="veh_passenger" depart="338.83" departLane="best" from="89927838#3" to="436291016#10"/>
    <trip id="veh101" type="veh_passenger" depart="342.22" departLane="best" from="593766965" to="6024091#3"/>
    <trip id="veh102" type="veh_passenger" depart="345.61" departLane="best" departSpeed="max" from="89922370#0" to="36054466#10"/>
    <trip id="veh103" type="veh_passenger" depart="349.00" departLane="best" departSpeed="max" from="573865733#0" to="36054466#5"/>
    <trip id="veh104" type="veh_passenger" depart="352.39" departLane="best" departSpeed="max" from="6024091#0" to="634644489"/>
    <trip id="veh106" type="veh_passenger" depart="359.16" departLane="best" from="6024091#2" to="-89927838#0"/>
    <trip id="veh107" type="veh_passenger" depart="362.55" departLane="best" from="641705064#1" to="642751754#1"/>
    <trip id="veh108" type="veh_passenger" depart="365.94" departLane="best" departSpeed="max" from="89922370#0" to="436291016#5"/>
    <trip id="veh109" type="veh_passenger" depart="369.33" departLane="best" departSpeed="max" from="-5955850#2" to="641705063#0"/>
    <trip id="veh110" type="veh_passenger" depart="372.72" departLane="best" from="-5962129#3" to="642751754#1"/>
    <trip id="veh111" type="veh_passenger" depart="376.10" departLane="best" from="641705063#1" to="436291016#10"/>
    <trip id="veh112" type="veh_passenger" depart="379.49" departLane="best" from="-5962129#0" to="642751754#1"/>
    <trip id="veh113" type="veh_passenger" depart="382.88" departLane="best" from="593766961" to="641705146#0"/>
    <trip id="veh114" type="veh_passenger" depart="386.27" departLane="best" departSpeed="max" from="6024091#0" to="642751754#1"/>
    <trip id="veh115" type="veh_passenger" depart="389.66" departLane="best" from="419814433#4" to="641705146#2"/>
    <trip id="veh116" type="veh_passenger" depart="393.05" departLane="best" departSpeed="max" from="642337374#0" to="419814433#1"/>
    <trip id="veh117" type="veh_passenger" depart="396.43" departLane="best" from="642337372" to="36054466#10"/>
    <trip id="veh118" type="veh_passenger" depart="399.82" departLane="best" departSpeed="max" from="6024091#0" to="436291011"/>
    <trip id="veh119" type="veh_passenger" depart="403.21" departLane="best" departSpeed="max" from="-5955850#2" to="5962129#1"/>
    <trip id="veh120" type="veh_passenger" depart="406.60" departLane="best" departSpeed="max" from="436291021#0" to="6024091#5"/>
    <trip id="veh121" type="veh_passenger" depart="409.99" departLane="best" departSpeed="max" from="436291021#0" to="641705063#2"/>
    <trip id="veh122" type="veh_passenger" depart="413.38" departLane="best" departSpeed="max" from="-5955850#2" to="36054466#6"/>
    <trip id="veh123" type="veh_passenger" depart="416.76" departLane="best" departSpeed="max" from="573865733#0" to="436291019"/>
    <trip id="veh124" type="veh_passenger" depart="420.15" departLane="best" departSpeed="max" from="6024091#0" to="436291011"/>
    <trip id="veh125" type="veh_passenger" depart="423.54" departLane="best" departSpeed="max" from="419814433#0" to="-89927838#0"/>
    <trip id="veh126" type="veh_passenger" depart="426.93" departLane="best" from="5962129#5" to="-89927838#0"/>
    <trip id="veh127" type="veh_passenger" depart="430.32" departLane="best" departSpeed="max" from="642337374#0" to="436291020#2"/>
    <trip id="veh129" type="veh_passenger" depart="437.09" departLane="best" departSpeed="max" from="89922370#0" to="436291020#0"/>
    <trip id="veh130" type="veh_passenger" depart="440.48" departLane="best" from="-5955850#1" to="593766961"/>
    <trip id="veh131" type="veh_passenger" depart="443.87" departLane="best" departSpeed="max" from="573865733#0" to="436291016#1"/>
    <trip id="veh133" type="veh_passenger" depart="450.65" departLane="best" departSpeed="max" from="89927838#0" to="436291016#1"/>
    <trip id="veh134" type="veh_passenger" depart="454.04" departLane="best" departSpeed="max" from="6024091#0" to="642751754#0"/>
    <trip id="veh135" type="veh_passenger" depart="457.42" departLane="best" from="5955850#0" to="278328405#1"/>
    <trip id="veh136" type="veh_passenger" depart="460.81" departLane="best" departSpeed="max" from="419814433#0" to="5955850#2"/>
    <trip id="veh137" type="veh_passenger" depart="464.20" departLane="best" departSpeed="max" from="6024091#0" to="436291018"/>
    <trip id="veh138" type="veh_passenger" depart="467.59" departLane="best" from="5962129#3" to="642361032"/>
    <trip id="veh139" type="veh_passenger" depart="470.98" departLane="best" from="593766964" to="642361032"/>
    <trip id="veh141" type="veh_passenger" depart="477.75" departLane="best" from="5962129#4" to="5955850#2"/>
    <trip id="veh142" type="veh_passenger" depart="481.14" departLane="best" departSpeed="max" from="89922370#0" to="436291029"/>
    <trip id="veh143" type="veh_passenger" depart="484.53" departLane="best" departSpeed="max" from="-593766962#1" to="436291016#8"/>
    <trip id="veh144" type="veh_passenger" depart="487.92" departLane="best" departSpeed="max" from="-5955850#2" to="642751754#1"/>
    <trip id="veh145" type="veh_passenger" depart="491.31" departLane="best" departSpeed="max" from="89922370#0" to="89927838#3"/>
    <trip id="veh146" type="veh_passenger" depart="494.69" departLane="best" departSpeed="max" from="-593766962#1" to="6024091#3"/>
    <trip id="veh148" type="veh_passenger" depart="501.47" departLane="best" departSpeed="max" from="573865733#0" to="593766962#0"/>
    <trip id="veh149" type="veh_passenger" depart="504.86" departLane="best" from="5962129#0" to="641705146#2"/>
    <trip id="veh150" type="veh_passenger" depart="508.25" departLane="best" from="436291016#1" to="5955850#2"/>
    <trip id="veh152" type="veh_passenger" depart="515.02" departLane="best" from="436291016#1" to="642751754#1"/>
    <trip id="veh154" type="veh_passenger" depart="521.80" departLane="best" departSpeed="max" from="89927838#0" to="593766962#0"/>
    <trip id="veh155" type="veh_passenger" depart="525.19" departLane="best" from="36054466#2" to="436291016#10"/>
    <trip id="veh156" type="veh_passenger" depart="528.58" departLane="best" from="6024091#3" to="593766961"/>
    <trip id="veh158" type="veh_passenger" depart="535.35" departLane="best" from="-5962129#3" to="642751754#1"/>
    <trip id="veh159" type="veh_passenger" depart="538.74" departLane="best" departSpeed="max" from="573865733#0" to="36054466#9"/>
    <trip id="veh160" type="veh_passenger" depart="542.13" departLane="best" departSpeed="max" from="89927838#0" to="642361032"/>
    <trip id="veh162" type="veh_passenger" depart="548.91" departLane="best" departSpeed="max" from="6024091#0" to="436291029"/>
    <trip id="veh163" type="veh_passenger" depart="552.30" departLane="best" departSpeed="max" from="89927838#0" to="419814433#1"/>
    <trip id="veh164" type="veh_passenger" depart="555.68" departLane="best" departSpeed="max" from="89922370#0" to="436291029"/>
    <trip id="veh165" type="veh_passenger" depart="559.07" departLane="best" departSpeed="max" from="436291021#0" to="641705065"/>
    <trip id="veh166" type="veh_passenger" depart="562.46" departLane="best" departSpeed="max" from="436291021#0" to="278328405#0"/>
    <trip id="veh167" type="veh_passenger" depart="565.85" departLane="best" from="436291064#1" to="436291029"/>
    <trip id="veh169" type="veh_passenger" depart="572.63" departLane="best" from="36054466#3" to="5955850#2"/>
    <trip id="veh170" type="veh_passenger" depart="576.01" departLane="best" departSpeed="max" from="573865733#0" to="36054466#8"/>
    <trip id="veh171" type="veh_passenger" depart="579.40" departLane="best" from="6024091#2" to="5955850#2"/>
    <trip id="veh172" type="veh_passenger" depart="582.79" departLane="best" departSpeed="max" from="642337374#0" to="436291016#9"/>
    <trip id="veh173" type="veh_passenger" depart="586.18" departLane="best" from="436291016#2" to="5955850#2"/>
    <trip id="veh174" type="veh_passenger" depart="589.57" departLane="best" from="593766964" to="641705146#2"/>
    <trip id="veh175" type="veh_passenger" depart="592.96" departLane="best" from="642337372" to="641705146#2"/>
    <trip id="veh176" type="veh_passenger" depart="596.34" departLane="best" departSpeed="max" from="6024091#0" to="6024091#5"/>
    <trip id="veh177" type="veh_passenger" depart="599.73" departLane="best" departSpeed="max" from="642337374#0" to="-419814433#2"/>
    <trip id="veh178" type="veh_passenger" depart="603.12" departLane="best" from="-5955850#0" to="593766961"/>
    <trip id="veh179" type="veh_passenger" depart="606.51" departLane="best" departSpeed="max" from="89922370#0" to="89927838#3"/>
    <trip id="veh180" type="veh_passenger" depart="609.90" departLane="best" departSpeed="max" from="-5955850#2" to="593766962#0"/>
    <trip id="veh181" type="veh_passenger" depart="613.29" departLane="best" departSpeed="max" from="642337374#0" to="436291016#9"/>
    <trip id="veh182" type="veh_passenger" depart="616.67" departLane="best" from="5962129#5" to="642361032"/>
    <trip id="veh183" type="veh_passenger" depart="620.06" departLane="best" departSpeed="max" from="-593766962#1" to="641705063#3"/>
    <trip id="veh184" type="veh_passenger" depart="623.45" departLane="best" departSpeed="max" from="573865733#0" to="641705063#2"/>
    <trip id="veh186" type="veh_passenger" depart="630.23" departLane="best" departSpeed="max" from="642337374#0" to="593766960"/>
    <trip id="veh187" type="veh_passenger" depart="633.62" departLane="best" departSpeed="max" from="419814433#0" to="642361032"/>
    <trip id="veh189" type="veh_passenger" depart="640.39" departLane="best" departSpeed="max" from="419814433#0" to="641705146#2"/>
    <trip id="veh190" type="veh_passenger" depart="643.78" departLane="best" departSpeed="max" from="573865733#0" to="436291031"/>
    <trip id="veh191" type="veh_passenger" depart="647.17" departLane="best" departSpeed="max" from="89927838#0" to="436291016#0"/>
    <trip id="veh192" type="veh_passenger" depart="650.56" departLane="best" departSpeed="max" from="89927838#0" to="593766963"/>
    <trip id="veh193" type="veh_passenger" depart="653.95" departLane="best" departSpeed="max" from="-593766962#1" to="436291064#1"/>
    <trip id="veh194" type="veh_passenger" depart="657.33" departLane="best" departSpeed="max" from="436291021#0" to="642361032"/>
    <trip id="veh195" type="veh_passenger" depart="660.72" departLane="best" departSpeed="max" from="573865733#0" to="436291016#10"/>
    <trip id="veh196" type="veh_passenger" depart="664.11" departLane="best" from="593766960" to="642361032"/>
    <trip id="veh197" type="veh_passenger" depart="667.50" departLane="best" departSpeed="max" from="6024091#0" to="-5962129#3"/>
    <trip id="veh198" type="veh_passenger" depart="670.89" departLane="best" from="436291064#0" to="642751754#1"/>
    <trip id="veh199" type="veh_passenger" depart="674.28" departLane="best" from="436291016#2" to="-89927838#0"/>
    <trip id="veh200" type="veh_passenger" depart="677.66" departLane="best" from="89922370#5" to="641705146#2"/>
    <trip id="veh201" type="veh_passenger" depart="681.05" departLane="best" departSpeed="max" from="6024091#0" to="642751754#1"/>
    <trip id="veh202" type="veh_passenger" depart="684.44" departLane="best" departSpeed="max" from="-593766962#1" to="642337372"/>
    <trip id="veh203" type="veh_passenger" depart="687.83" departLane="best" departSpeed="max" from="573865733#0" to="642361032"/>
    <trip id="veh204" type="veh_passenger" depart="691.22" departLane="best" from="436291013" to="436291016#6"/>
    <trip id="veh205" type="veh_passenger" depart="694.61" departLane="best" departSpeed="max" from="-5955850#2" to="642337373"/>
    <trip id="veh206" type="veh_passenger" depart="697.99" departLane="best" departSpeed="max" from="89922370#0" to="436291016#7"/>
    <trip id="veh207" type="veh_passenger" depart="701.38" departLane="best" from="6024091#2" to="278328405#0"/>
    <trip id="veh208" type="veh_passenger" depart="704.77" departLane="best" departSpeed="max" from="89922370#0" to="-419814433#2"/>
    <trip id="veh209" type="veh_passenger" depart="708.16" departLane="best" departSpeed="max" from="89922370#0" to="641705146#2"/>
    <trip id="veh210" type="veh_passenger" depart="711.55" departLane="best" from="436291064#0" to="642751754#1"/>
    <trip id="veh211" type="veh_passenger" depart="714.94" departLane="best" from="642337372" to="436291018"/>
    <trip id="veh212" type="veh_passenger" depart="718.32" departLane="best" from="5955850#1" to="593766962#0"/>
    <trip id="veh213" type="veh_passenger" depart="721.71" departLane="best" departSpeed="max" from="573865733#0" to="-419814433#0"/>
    <trip id="veh214" type="veh_passenger" depart="725.10" departLane="best" from="-5955850#0" to="634644489"/>
    <trip id="veh215" type="veh_passenger" depart="728.49" departLane="best" departSpeed="max" from="642337374#0" to="436291016#10"/>
    <trip id="veh216" type="veh_passenger" depart="731.88" departLane="best" from="-419814433#1" to="641705146#2"/>
    <trip id="veh217" type="veh_passenger" depart="735.27" departLane="best" from="6024091#2" to="436291029"/>
    <trip id="veh218" type="veh_passenger" depart="738.65" departLane="best" from="6024091#2" to="436291020#0"/>
    <trip id="veh219" type="veh_passenger" depart="742.04" departLane="best" from="-5962129#0" to="436291029"/>
    <trip id="veh220" type="veh_passenger" depart="745.43" departLane="best" departSpeed="max" from="89922370#0" to="-593766960"/>
    <trip id="veh221" type="veh_passenger" depart="748.82" departLane="best" from="641705063#1" to="641705146#2"/>
    <trip id="veh222" type="veh_passenger" depart="752.21" departLane="best" departSpeed="max" from="-5955850#2" to="436291064#1"/>
    <trip id="veh223" type="veh_passenger" depart="755.60" departLane="best" departSpeed="max" from="573865733#0" to="-5962129#5"/>
    <trip id="veh224" type="veh_passenger" depart="758.98" departLane="best" departSpeed="max" from="6024091#0" to="641705146#2"/>
    <trip id="veh225" type="veh_passenger" depart="762.37" departLane="best" departSpeed="max" from="6024091#0" to="36054466#4"/>
    <trip id="veh227" type="veh_passenger" depart="769.15" departLane="best" departSpeed="max" from="89922370#0" to="-5955850#0"/>
    <trip id="veh229" type="veh_passenger" depart="775.93" departLane="best" departSpeed="max" from="-5955850#2" to="5962129#5"/>
    <trip id="veh230" type="veh_passenger" depart="779.31" departLane="best" departSpeed="max" from="573865733#0" to="436291029"/>
    <trip id="veh231" type="veh_passenger" depart="782.70" departLane="best" from="436291016#1" to="-89927838#0"/>
    <trip id="veh232" type="veh_passenger" depart="786.09" departLane="best" from="6024091#3" to="641705146#2"/>
    <trip id="veh233" type="veh_passenger" depart="789.48" departLane="best" departSpeed="max" from="6024091#0" to="642751754#1"/>
    <trip id="veh234" type="veh_passenger" depart="792.87" departLane="best" departSpeed="max" from="573865733#0" to="436291016#10"/>
    <trip id="veh235" type="veh_passenger" depart="796.26" departLane="best" departSpeed="max" from="573865733#0" to="36054466#4"/>
    <trip id="veh236" type="veh_passenger" depart="799.64" departLane="best" from="-5962129#0" to="641705146#2"/>
    <trip id="veh237" type="veh_passenger" depart="803.03" departLane="best" departSpeed="max" from="573865733#0" to="641705064#0"/>
    <trip id="veh238" type="veh_passenger" depart="806.42" departLane="best" from="642337372" to="642751754#1"/>
    <trip id="veh239" type="veh_passenger" depart="809.81" departLane="best" departSpeed="max" from="89922370#0" to="641705146#0"/>
    <trip id="veh240" type="veh_passenger" depart="813.20" departLane="best" departSpeed="max" from="6024091#0" to="436291016#1"/>
    <trip id="veh242" type="veh_passenger" depart="819.97" departLane="best" from="436291018" to="436291016#10"/>
    <trip id="veh243" type="veh_passenger" depart="823.36" departLane="best" departSpeed="max" from="-5955850#2" to="-593766964"/>
    <trip id="veh244" type="veh_passenger" depart="826.75" departLane="best" from="5955850#1" to="436291020#1"/>
    <trip id="veh245" type="veh_passenger" depart="830.14" departLane="best" from="6024091#3" to="-89927838#0"/>
    <trip id="veh246" type="veh_passenger" depart="833.53" departLane="best" departSpeed="max" from="6024091#0" to="436291029"/>
    <trip id="veh247" type="veh_passenger" depart="836.92" departLane="best" from="-5955850#1" to="641705146#2"/>
    <trip id="veh248" type="veh_passenger" depart="840.30" departLane="best" departSpeed="max" from="-593766962#1" to="-419814433#0"/>
    <trip id="veh249" type="veh_passenger" depart="843.69" departLane="best" departSpeed="max" from="89922370#0" to="641705146#2"/>
    <trip id="veh250" type="veh_passenger" depart="847.08" departLane="best" departSpeed="max" from="573865733#0" to="436291031"/>
    <trip id="veh251" type="veh_passenger" depart="850.47" departLane="best" departSpeed="max" from="89922370#0" to="-5962129#3"/>
    <trip id="veh252" type="veh_passenger" depart="853.86" departLane="best" departSpeed="max" from="573865733#0" to="436291029"/>
    <trip id="veh253" type="veh_passenger" depart="857.25" departLane="best" from="-5962129#1" to="436291029"/>
    <trip id="veh254" type="veh_passenger" depart="860.63" departLane="best" from="642337374#1" to="436291016#10"/>
    <trip id="veh255" type="veh_passenger" depart="864.02" departLane="best" departSpeed="max" from="6024091#0" to="641705065"/>
    <trip id="veh256" type="veh_passenger" depart="867.41" departLane="best" from="-89927838#3" to="36054466#10"/>
    <trip id="veh257" type="veh_passenger" depart="870.80" departLane="best" departSpeed="max" from="573865733#0" to="6024091#5"/>
    <trip id="veh259" type="veh_passenger" depart="877.58" departLane="best" departSpeed="max" from="573865733#0" to="593766962#0"/>
    <trip id="veh260" type="veh_passenger" depart="880.96" departLane="best" from="-593766964" to="641705146#1"/>
    <trip id="veh261" type="veh_passenger" depart="884.35" departLane="best" departSpeed="max" from="-5955850#2" to="641705146#2"/>
    <trip id="veh262" type="veh_passenger" depart="887.74" departLane="best" departSpeed="max" from="436291021#0" to="436291019"/>
    <trip id="veh263" type="veh_passenger" depart="891.13" departLane="best" departSpeed="max" from="642337374#0" to="436291018"/>
    <trip id="veh264" type="veh_passenger" depart="894.52" departLane="best" from="641705064#0" to="593766962#0"/>
    <trip id="veh265" type="veh_passenger" depart="897.91" departLane="best" from="234953562" to="-593766965"/>
    <trip id="veh267" type="veh_passenger" depart="904.68" departLane="best" departSpeed="max" from="436291021#0" to="36054466#1"/>
    <trip id="veh268" type="veh_passenger" depart="908.07" departLane="best" departSpeed="max" from="6024091#0" to="593766962#0"/>
    <trip id="veh269" type="veh_passenger" depart="911.46" departLane="best" from="-641705065" to="436291016#10"/>